data_wjw
_audit_creation_date              2020-02-02
_audit_creation_method            'Pymatgen'
_symmetry_space_group_name_H-M    'P1'
_symmetry_Int_Tables_number       1
loop_
_symmetry_equiv_pos_as_xyz
  x,y,z
_cell_length_a                    22.9077
_cell_length_b                    22.9077
_cell_length_c                    26.3688
_cell_angle_alpha                 90.0
_cell_angle_beta                 90.0
_cell_angle_gamma                 120.0
loop_
_atom_site_label
_atom_site_type_symbol
_atom_site_fract_x
_atom_site_fract_y
_atom_site_fract_z
V1     V     0.7492   0.5918   0.6852
V2     V     0.8426   0.5918   0.3148
V3     V     0.7492   0.1574   0.6481
V4     V     0.5918   0.8426   0.3519
V5     V     0.8426   0.2508   0.0186
V6     V     0.5918   0.7492   0.9814
V7     V     0.1574   0.4082   0.3148
V8     V     0.2508   0.4082   0.6852
V9     V     0.2508   0.8426   0.6481
V10     V     0.4082   0.2508   0.9814
V11     V     0.1574   0.7492   0.0186
V12     V     0.4082   0.1574   0.3519
loop_
_geom_bond_atom_site_label_1
_geom_bond_atom_site_label_2
_geom_bond_distance
_geom_bond_site_symmetry_2
_ccdc_geom_bond_type
V1     V2    10.0   .     S
V1     V9    10.0   1_655     S
V1     V6    10.0   .     S
V1     V3    10.0   .     S
V1     V8    10.0   .     S
V2     V4    10.0   .     S
V2     V11    10.0   1_655     S
V2     V12    10.0   .     S
V2     V7    10.0   1_655     S
V3     V8    10.0   1_655     S
V3     V5    10.0   1_556     S
V3     V4    10.0   1_545     S
V3     V9    10.0   1_545     S
V4     V6    10.0   1_554     S
V4     V3    10.0   1_565     S
V4     V7    10.0   .     S
V4     V12    10.0   1_565     S
V5     V10    10.0   1_554     S
V5     V3    10.0   1_554     S
V5     V6    10.0   1_544     S
V5     V7    10.0   1_655     S
V5     V11    10.0   1_655     S
V6     V11    10.0   1_556     S
V6     V4    10.0   1_556     S
V6     V5    10.0   1_566     S
V6     V10    10.0   .     S
V7     V12    10.0   .     S
V7     V8    10.0   .     S
V7     V5    10.0   1_455     S
V7     V2    10.0   1_455     S
V8     V3    10.0   1_455     S
V8     V10    10.0   .     S
V8     V9    10.0   .     S
V9     V1    10.0   1_455     S
V9     V11    10.0   1_556     S
V9     V12    10.0   1_565     S
V9     V3    10.0   1_565     S
V10     V5    10.0   1_556     S
V10     V11    10.0   1_546     S
V10     V12    10.0   1_556     S
V11     V6    10.0   1_554     S
V11     V9    10.0   1_554     S
V11     V10    10.0   1_564     S
V11     V2    10.0   1_455     S
V11     V5    10.0   1_455     S
V12     V10    10.0   1_554     S
V12     V9    10.0   1_545     S
V12     V4    10.0   1_545     S
