data_wjy
_audit_creation_date              2020-02-02
_audit_creation_method            'Pymatgen'
_symmetry_space_group_name_H-M    'P1'
_symmetry_Int_Tables_number       1
loop_
_symmetry_equiv_pos_as_xyz
  x,y,z
_cell_length_a                    46.5101
_cell_length_b                    46.5101
_cell_length_c                    20.0
_cell_angle_alpha                 90.0
_cell_angle_beta                 90.0
_cell_angle_gamma                 120.0
loop_
_atom_site_label
_atom_site_type_symbol
_atom_site_fract_x
_atom_site_fract_y
_atom_site_fract_z
V1     V     0.5407   0.8779   0.2946
V2     V     0.5407   0.8779   0.7946
V3     V     0.3371   0.8779   0.4554
V4     V     0.3371   0.8779   0.9554
V5     V     0.4593   0.1221   0.0446
V6     V     0.4593   0.1221   0.5446
V7     V     0.6629   0.1221   0.2054
V8     V     0.6629   0.1221   0.7054
V9     V     0.3371   0.4593   0.128
V10     V     0.3371   0.4593   0.628
V11     V     0.5407   0.6629   0.2887
V12     V     0.5407   0.6629   0.7887
V13     V     0.6629   0.5407   0.378
V14     V     0.6629   0.5407   0.878
V15     V     0.4593   0.3371   0.0387
V16     V     0.4593   0.3371   0.5387
V17     V     0.8779   0.3371   0.2113
V18     V     0.8779   0.3371   0.7113
V19     V     0.8779   0.5407   0.372
V20     V     0.8779   0.5407   0.872
V21     V     0.1221   0.4593   0.122
V22     V     0.1221   0.4593   0.622
V23     V     0.1221   0.6629   0.4613
V24     V     0.1221   0.6629   0.9613
loop_
_geom_bond_atom_site_label_1
_geom_bond_atom_site_label_2
_geom_bond_distance
_geom_bond_site_symmetry_2
_ccdc_geom_bond_type
V1     V3    10.0   .     S
V1     V7    10.0   1_565     S
V1     V2    10.0   1_554     S
V1     V2    10.0   .     S
V1     V11    10.0   .     S
V2     V4    10.0   .     S
V2     V8    10.0   1_565     S
V2     V1    10.0   1_556     S
V2     V12    10.0   .     S
V3     V6    10.0   1_565     S
V3     V4    10.0   1_554     S
V3     V4    10.0   .     S
V3     V23    10.0   .     S
V4     V5    10.0   1_566     S
V4     V3    10.0   1_556     S
V4     V24    10.0   .     S
V5     V7    10.0   .     S
V5     V4    10.0   1_544     S
V5     V6    10.0   .     S
V5     V6    10.0   1_554     S
V5     V15    10.0   .     S
V6     V8    10.0   .     S
V6     V3    10.0   1_545     S
V6     V5    10.0   1_556     S
V6     V16    10.0   .     S
V7     V1    10.0   1_545     S
V7     V8    10.0   .     S
V7     V8    10.0   1_554     S
V7     V17    10.0   .     S
V8     V2    10.0   1_545     S
V8     V7    10.0   1_556     S
V8     V18    10.0   .     S
V9     V11    10.0   .     S
V9     V15    10.0   .     S
V9     V10    10.0   .     S
V9     V10    10.0   1_554     S
V9     V21    10.0   .     S
V10     V12    10.0   .     S
V10     V16    10.0   .     S
V10     V9    10.0   1_556     S
V10     V22    10.0   .     S
V11     V13    10.0   .     S
V11     V12    10.0   1_554     S
V11     V12    10.0   .     S
V12     V14    10.0   .     S
V12     V11    10.0   1_556     S
V13     V16    10.0   .     S
V13     V14    10.0   1_554     S
V13     V14    10.0   .     S
V13     V19    10.0   .     S
V14     V15    10.0   1_556     S
V14     V13    10.0   1_556     S
V14     V20    10.0   .     S
V15     V14    10.0   1_554     S
V15     V16    10.0   .     S
V15     V16    10.0   1_554     S
V16     V15    10.0   1_556     S
V17     V19    10.0   .     S
V17     V21    10.0   1_655     S
V17     V18    10.0   .     S
V17     V18    10.0   1_554     S
V18     V20    10.0   .     S
V18     V22    10.0   1_655     S
V18     V17    10.0   1_556     S
V19     V23    10.0   1_655     S
V19     V20    10.0   1_554     S
V19     V20    10.0   .     S
V20     V24    10.0   1_655     S
V20     V19    10.0   1_556     S
V21     V24    10.0   1_554     S
V21     V17    10.0   1_455     S
V21     V22    10.0   .     S
V21     V22    10.0   1_554     S
V22     V23    10.0   .     S
V22     V18    10.0   1_455     S
V22     V21    10.0   1_556     S
V23     V19    10.0   1_455     S
V23     V24    10.0   1_554     S
V23     V24    10.0   .     S
V24     V21    10.0   1_556     S
V24     V20    10.0   1_455     S
V24     V23    10.0   1_556     S
