data_wka
_audit_creation_date              2020-02-02
_audit_creation_method            'Pymatgen'
_symmetry_space_group_name_H-M    'P1'
_symmetry_Int_Tables_number       1
loop_
_symmetry_equiv_pos_as_xyz
  x,y,z
_cell_length_a                    43.9257
_cell_length_b                    43.9257
_cell_length_c                    20.0
_cell_angle_alpha                 90.0
_cell_angle_beta                 90.0
_cell_angle_gamma                 120.0
loop_
_atom_site_label
_atom_site_type_symbol
_atom_site_fract_x
_atom_site_fract_y
_atom_site_fract_z
V1     V     0.3275   0.4452   0.2224
V2     V     0.3275   0.4452   0.7224
V3     V     0.5548   0.6725   0.1943
V4     V     0.5548   0.6725   0.6943
V5     V     0.6725   0.1178   0.1109
V6     V     0.6725   0.1178   0.6109
V7     V     0.4452   0.1178   0.1391
V8     V     0.4452   0.1178   0.6391
V9     V     0.6725   0.5548   0.4724
V10     V     0.6725   0.5548   0.9724
V11     V     0.4452   0.3275   0.4443
V12     V     0.4452   0.3275   0.9443
V13     V     0.8822   0.3275   0.3057
V14     V     0.8822   0.3275   0.8057
V15     V     0.8822   0.5548   0.2776
V16     V     0.8822   0.5548   0.7776
V17     V     0.1178   0.4452   0.0276
V18     V     0.1178   0.4452   0.5276
V19     V     0.1178   0.6725   0.0557
V20     V     0.1178   0.6725   0.5557
V21     V     0.3275   0.8822   0.3609
V22     V     0.3275   0.8822   0.8609
V23     V     0.5548   0.8822   0.3891
V24     V     0.5548   0.8822   0.8891
loop_
_geom_bond_atom_site_label_1
_geom_bond_atom_site_label_2
_geom_bond_distance
_geom_bond_site_symmetry_2
_ccdc_geom_bond_type
V1     V3    10.0   .     S
V1     V11    10.0   .     S
V1     V17    10.0   .     S
V1     V2    10.0   .     S
V1     V2    10.0   1_554     S
V2     V4    10.0   .     S
V2     V12    10.0   .     S
V2     V18    10.0   .     S
V2     V1    10.0   1_556     S
V3     V23    10.0   .     S
V3     V10    10.0   1_554     S
V3     V4    10.0   .     S
V3     V4    10.0   1_554     S
V4     V24    10.0   .     S
V4     V9    10.0   .     S
V4     V3    10.0   1_556     S
V5     V7    10.0   .     S
V5     V13    10.0   .     S
V5     V24    10.0   1_544     S
V5     V6    10.0   .     S
V5     V6    10.0   1_554     S
V6     V8    10.0   .     S
V6     V14    10.0   .     S
V6     V23    10.0   1_545     S
V6     V5    10.0   1_556     S
V7     V12    10.0   1_554     S
V7     V21    10.0   1_545     S
V7     V8    10.0   .     S
V7     V8    10.0   1_554     S
V8     V11    10.0   .     S
V8     V22    10.0   1_545     S
V8     V7    10.0   1_556     S
V9     V11    10.0   .     S
V9     V15    10.0   .     S
V9     V10    10.0   1_554     S
V9     V10    10.0   .     S
V10     V12    10.0   .     S
V10     V16    10.0   .     S
V10     V3    10.0   1_556     S
V10     V9    10.0   1_556     S
V11     V12    10.0   1_554     S
V11     V12    10.0   .     S
V12     V7    10.0   1_556     S
V12     V11    10.0   1_556     S
V13     V15    10.0   .     S
V13     V18    10.0   1_655     S
V13     V14    10.0   1_554     S
V13     V14    10.0   .     S
V14     V16    10.0   .     S
V14     V17    10.0   1_656     S
V14     V13    10.0   1_556     S
V15     V19    10.0   1_655     S
V15     V16    10.0   1_554     S
V15     V16    10.0   .     S
V16     V20    10.0   1_655     S
V16     V15    10.0   1_556     S
V17     V14    10.0   1_454     S
V17     V19    10.0   .     S
V17     V18    10.0   .     S
V17     V18    10.0   1_554     S
V18     V13    10.0   1_455     S
V18     V20    10.0   .     S
V18     V17    10.0   1_556     S
V19     V22    10.0   1_554     S
V19     V15    10.0   1_455     S
V19     V20    10.0   .     S
V19     V20    10.0   1_554     S
V20     V21    10.0   .     S
V20     V16    10.0   1_455     S
V20     V19    10.0   1_556     S
V21     V23    10.0   .     S
V21     V7    10.0   1_565     S
V21     V22    10.0   1_554     S
V21     V22    10.0   .     S
V22     V19    10.0   1_556     S
V22     V24    10.0   .     S
V22     V8    10.0   1_565     S
V22     V21    10.0   1_556     S
V23     V6    10.0   1_565     S
V23     V24    10.0   1_554     S
V23     V24    10.0   .     S
V24     V5    10.0   1_566     S
V24     V23    10.0   1_556     S
