data_wkb
_audit_creation_date              2020-02-02
_audit_creation_method            'Pymatgen'
_symmetry_space_group_name_H-M    'P1'
_symmetry_Int_Tables_number       1
loop_
_symmetry_equiv_pos_as_xyz
  x,y,z
_cell_length_a                    28.3852
_cell_length_b                    28.3852
_cell_length_c                    20.6873
_cell_angle_alpha                 90.0
_cell_angle_beta                 90.0
_cell_angle_gamma                 120.0
loop_
_atom_site_label
_atom_site_type_symbol
_atom_site_fract_x
_atom_site_fract_y
_atom_site_fract_z
V1     V     0.2886   0.3608   0.4407
V2     V     0.0722   0.3608   0.0593
V3     V     0.2886   0.9278   0.726
V4     V     0.0722   0.7114   0.1074
V5     V     0.6392   0.9278   0.774
V6     V     0.6392   0.7114   0.3926
V7     V     0.3608   0.2886   0.8926
V8     V     0.3608   0.0722   0.274
V9     V     0.9278   0.6392   0.5593
V10     V     0.7114   0.6392   0.9407
V11     V     0.7114   0.0722   0.226
V12     V     0.9278   0.2886   0.6074
loop_
_geom_bond_atom_site_label_1
_geom_bond_atom_site_label_2
_geom_bond_distance
_geom_bond_site_symmetry_2
_ccdc_geom_bond_type
V1     V2    10.0   .     S
V1     V6    10.0   .     S
V1     V12    10.0   1_455     S
V1     V8    10.0   .     S
V1     V7    10.0   .     S
V2     V4    10.0   .     S
V2     V7    10.0   1_554     S
V2     V11    10.0   1_455     S
V2     V12    10.0   1_454     S
V3     V4    10.0   1_556     S
V3     V5    10.0   .     S
V3     V9    10.0   1_455     S
V3     V7    10.0   1_565     S
V3     V8    10.0   1_565     S
V4     V3    10.0   1_554     S
V4     V8    10.0   1_565     S
V4     V10    10.0   1_454     S
V4     V9    10.0   1_455     S
V5     V11    10.0   1_566     S
V5     V6    10.0   .     S
V5     V10    10.0   .     S
V5     V12    10.0   1_565     S
V6     V11    10.0   1_565     S
V6     V9    10.0   .     S
V6     V10    10.0   1_554     S
V7     V2    10.0   1_556     S
V7     V10    10.0   .     S
V7     V8    10.0   1_556     S
V7     V3    10.0   1_545     S
V8     V4    10.0   1_545     S
V8     V11    10.0   .     S
V8     V7    10.0   1_554     S
V8     V3    10.0   1_545     S
V9     V3    10.0   1_655     S
V9     V10    10.0   .     S
V9     V12    10.0   .     S
V9     V4    10.0   1_655     S
V10     V4    10.0   1_656     S
V10     V6    10.0   1_556     S
V11     V5    10.0   1_544     S
V11     V6    10.0   1_545     S
V11     V12    10.0   .     S
V11     V2    10.0   1_655     S
V12     V1    10.0   1_655     S
V12     V5    10.0   1_545     S
V12     V2    10.0   1_656     S
