data_wkj
_audit_creation_date              2020-02-02
_audit_creation_method            'Pymatgen'
_symmetry_space_group_name_H-M    'P1'
_symmetry_Int_Tables_number       1
loop_
_symmetry_equiv_pos_as_xyz
  x,y,z
_cell_length_a                    38.7553
_cell_length_b                    38.7553
_cell_length_c                    14.1419
_cell_angle_alpha                 90.0
_cell_angle_beta                 90.0
_cell_angle_gamma                 120.0
loop_
_atom_site_label
_atom_site_type_symbol
_atom_site_fract_x
_atom_site_fract_y
_atom_site_fract_z
V1     V     0.6439   0.5386   0.5833
V2     V     0.5386   0.6439   0.0833
V3     V     0.1053   0.6439   0.9167
V4     V     0.8947   0.5386   0.4167
V5     V     0.6439   0.1053   0.75
V6     V     0.5386   0.8947   0.25
V7     V     0.4614   0.1053   0.25
V8     V     0.3561   0.8947   0.75
V9     V     0.3561   0.4614   0.5833
V10     V     0.4614   0.3561   0.0833
V11     V     0.1053   0.4614   0.4167
V12     V     0.8947   0.3561   0.9167
loop_
_geom_bond_atom_site_label_1
_geom_bond_atom_site_label_2
_geom_bond_distance
_geom_bond_site_symmetry_2
_ccdc_geom_bond_type
V1     V10    10.0   .     S
V1     V9    10.0   .     S
V1     V10    10.0   1_556     S
V1     V2    10.0   .     S
V1     V2    10.0   1_556     S
V1     V4    10.0   .     S
V2     V9    10.0   .     S
V2     V10    10.0   .     S
V2     V9    10.0   1_554     S
V2     V1    10.0   1_554     S
V2     V6    10.0   .     S
V3     V11    10.0   .     S
V3     V11    10.0   1_556     S
V3     V12    10.0   1_455     S
V3     V4    10.0   1_455     S
V3     V4    10.0   1_456     S
V3     V8    10.0   .     S
V4     V11    10.0   1_655     S
V4     V12    10.0   .     S
V4     V12    10.0   1_554     S
V4     V3    10.0   1_655     S
V4     V3    10.0   1_654     S
V5     V7    10.0   1_556     S
V5     V8    10.0   1_545     S
V5     V7    10.0   .     S
V5     V6    10.0   1_546     S
V5     V6    10.0   1_545     S
V5     V12    10.0   .     S
V6     V7    10.0   1_565     S
V6     V8    10.0   1_554     S
V6     V8    10.0   .     S
V6     V5    10.0   1_564     S
V6     V5    10.0   1_565     S
V7     V5    10.0   1_554     S
V7     V6    10.0   1_545     S
V7     V8    10.0   1_544     S
V7     V8    10.0   1_545     S
V7     V10    10.0   .     S
V8     V5    10.0   1_565     S
V8     V6    10.0   1_556     S
V8     V7    10.0   1_566     S
V8     V7    10.0   1_565     S
V9     V2    10.0   1_556     S
V9     V10    10.0   .     S
V9     V10    10.0   1_556     S
V9     V11    10.0   .     S
V10     V1    10.0   1_554     S
V10     V9    10.0   1_554     S
V11     V4    10.0   1_455     S
V11     V3    10.0   1_554     S
V11     V12    10.0   1_455     S
V11     V12    10.0   1_454     S
V12     V3    10.0   1_655     S
V12     V4    10.0   1_556     S
V12     V11    10.0   1_655     S
V12     V11    10.0   1_656     S
