data_wkk
_audit_creation_date              2020-02-02
_audit_creation_method            'Pymatgen'
_symmetry_space_group_name_H-M    'P1'
_symmetry_Int_Tables_number       1
loop_
_symmetry_equiv_pos_as_xyz
  x,y,z
_cell_length_a                    44.2588
_cell_length_b                    44.2588
_cell_length_c                    20.0
_cell_angle_alpha                 90.0
_cell_angle_beta                 90.0
_cell_angle_gamma                 120.0
loop_
_atom_site_label
_atom_site_type_symbol
_atom_site_fract_x
_atom_site_fract_y
_atom_site_fract_z
V1     V     0.5471   0.8714   0.4583
V2     V     0.5471   0.8714   0.9583
V3     V     0.6757   0.1286   0.0417
V4     V     0.6757   0.1286   0.5417
V5     V     0.3243   0.8714   0.0417
V6     V     0.3243   0.8714   0.5417
V7     V     0.4529   0.1286   0.4583
V8     V     0.4529   0.1286   0.9583
V9     V     0.3243   0.4529   0.125
V10     V     0.3243   0.4529   0.625
V11     V     0.4529   0.3243   0.2083
V12     V     0.4529   0.3243   0.7083
V13     V     0.6757   0.5471   0.125
V14     V     0.6757   0.5471   0.625
V15     V     0.5471   0.6757   0.2083
V16     V     0.5471   0.6757   0.7083
V17     V     0.1286   0.6757   0.2917
V18     V     0.1286   0.6757   0.7917
V19     V     0.8714   0.5471   0.375
V20     V     0.8714   0.5471   0.875
V21     V     0.8714   0.3243   0.2917
V22     V     0.8714   0.3243   0.7917
V23     V     0.1286   0.4529   0.375
V24     V     0.1286   0.4529   0.875
loop_
_geom_bond_atom_site_label_1
_geom_bond_atom_site_label_2
_geom_bond_distance
_geom_bond_site_symmetry_2
_ccdc_geom_bond_type
V1     V16    10.0   .     S
V1     V15    10.0   .     S
V1     V6    10.0   .     S
V1     V4    10.0   1_565     S
V1     V2    10.0   1_554     S
V1     V2    10.0   .     S
V2     V15    10.0   1_556     S
V2     V16    10.0   .     S
V2     V5    10.0   1_556     S
V2     V3    10.0   1_566     S
V2     V1    10.0   1_556     S
V3     V2    10.0   1_544     S
V3     V8    10.0   1_554     S
V3     V4    10.0   .     S
V3     V4    10.0   1_554     S
V3     V22    10.0   1_554     S
V3     V21    10.0   .     S
V4     V1    10.0   1_545     S
V4     V7    10.0   .     S
V4     V3    10.0   1_556     S
V4     V21    10.0   .     S
V4     V22    10.0   .     S
V5     V18    10.0   1_554     S
V5     V17    10.0   .     S
V5     V2    10.0   1_554     S
V5     V8    10.0   1_564     S
V5     V6    10.0   .     S
V5     V6    10.0   1_554     S
V6     V17    10.0   .     S
V6     V18    10.0   .     S
V6     V7    10.0   1_565     S
V6     V5    10.0   1_556     S
V7     V6    10.0   1_545     S
V7     V8    10.0   1_554     S
V7     V8    10.0   .     S
V7     V12    10.0   .     S
V7     V11    10.0   .     S
V8     V3    10.0   1_556     S
V8     V5    10.0   1_546     S
V8     V7    10.0   1_556     S
V8     V11    10.0   1_556     S
V8     V12    10.0   .     S
V9     V11    10.0   .     S
V9     V15    10.0   .     S
V9     V10    10.0   .     S
V9     V10    10.0   1_554     S
V9     V23    10.0   .     S
V9     V24    10.0   1_554     S
V10     V12    10.0   .     S
V10     V16    10.0   .     S
V10     V9    10.0   1_556     S
V10     V24    10.0   .     S
V10     V23    10.0   .     S
V11     V8    10.0   1_554     S
V11     V13    10.0   .     S
V11     V12    10.0   .     S
V11     V12    10.0   1_554     S
V12     V14    10.0   .     S
V12     V11    10.0   1_556     S
V13     V15    10.0   .     S
V13     V14    10.0   .     S
V13     V14    10.0   1_554     S
V13     V19    10.0   .     S
V13     V20    10.0   1_554     S
V14     V16    10.0   .     S
V14     V13    10.0   1_556     S
V14     V20    10.0   .     S
V14     V19    10.0   .     S
V15     V2    10.0   1_554     S
V15     V16    10.0   .     S
V15     V16    10.0   1_554     S
V16     V15    10.0   1_556     S
V17     V19    10.0   1_455     S
V17     V23    10.0   .     S
V17     V18    10.0   1_554     S
V17     V18    10.0   .     S
V18     V5    10.0   1_556     S
V18     V20    10.0   1_455     S
V18     V24    10.0   .     S
V18     V17    10.0   1_556     S
V19     V17    10.0   1_655     S
V19     V21    10.0   .     S
V19     V20    10.0   1_554     S
V19     V20    10.0   .     S
V20     V13    10.0   1_556     S
V20     V18    10.0   1_655     S
V20     V22    10.0   .     S
V20     V19    10.0   1_556     S
V21     V23    10.0   1_655     S
V21     V22    10.0   1_554     S
V21     V22    10.0   .     S
V22     V3    10.0   1_556     S
V22     V24    10.0   1_655     S
V22     V21    10.0   1_556     S
V23     V21    10.0   1_455     S
V23     V24    10.0   1_554     S
V23     V24    10.0   .     S
V24     V9    10.0   1_556     S
V24     V22    10.0   1_455     S
V24     V23    10.0   1_556     S
