data_wkn
_audit_creation_date              2020-02-02
_audit_creation_method            'Pymatgen'
_symmetry_space_group_name_H-M    'P1'
_symmetry_Int_Tables_number       1
loop_
_symmetry_equiv_pos_as_xyz
  x,y,z
_cell_length_a                    43.5106
_cell_length_b                    43.5106
_cell_length_c                    20.0
_cell_angle_alpha                 90.0
_cell_angle_beta                 90.0
_cell_angle_gamma                 120.0
loop_
_atom_site_label
_atom_site_type_symbol
_atom_site_fract_x
_atom_site_fract_y
_atom_site_fract_z
V1     V     0.6759   0.1251   0.3333
V2     V     0.6759   0.1251   0.8333
V3     V     0.5508   0.8749   0.1667
V4     V     0.5508   0.8749   0.6667
V5     V     0.5508   0.6759   0.4167
V6     V     0.5508   0.6759   0.9167
V7     V     0.6759   0.5508   0.25
V8     V     0.6759   0.5508   0.75
V9     V     0.8749   0.5508   0.5
V10     V     0.8749   0.5508   1.0
V11     V     0.1251   0.6759   0.3333
V12     V     0.1251   0.6759   0.8333
V13     V     0.4492   0.1251   0.4167
V14     V     0.4492   0.1251   0.9167
V15     V     0.3241   0.8749   0.0833
V16     V     0.3241   0.8749   0.5833
V17     V     0.4492   0.3241   0.1667
V18     V     0.4492   0.3241   0.6667
V19     V     0.3241   0.4492   0.0
V20     V     0.3241   0.4492   0.5
V21     V     0.1251   0.4492   0.25
V22     V     0.1251   0.4492   0.75
V23     V     0.8749   0.3241   0.0833
V24     V     0.8749   0.3241   0.5833
loop_
_geom_bond_atom_site_label_1
_geom_bond_atom_site_label_2
_geom_bond_distance
_geom_bond_site_symmetry_2
_ccdc_geom_bond_type
V1     V24    10.0   .     S
V1     V2    10.0   1_554     S
V1     V2    10.0   .     S
V1     V3    10.0   1_545     S
V1     V23    10.0   .     S
V1     V13    10.0   .     S
V2     V23    10.0   1_556     S
V2     V1    10.0   1_556     S
V2     V4    10.0   1_545     S
V2     V24    10.0   .     S
V2     V14    10.0   .     S
V3     V6    10.0   1_554     S
V3     V4    10.0   .     S
V3     V4    10.0   1_554     S
V3     V1    10.0   1_565     S
V3     V5    10.0   .     S
V3     V15    10.0   .     S
V4     V5    10.0   .     S
V4     V3    10.0   1_556     S
V4     V2    10.0   1_565     S
V4     V6    10.0   .     S
V4     V16    10.0   .     S
V5     V6    10.0   1_554     S
V5     V6    10.0   .     S
V5     V7    10.0   .     S
V5     V20    10.0   .     S
V6     V3    10.0   1_556     S
V6     V5    10.0   1_556     S
V6     V8    10.0   .     S
V6     V19    10.0   1_556     S
V7     V10    10.0   1_554     S
V7     V8    10.0   1_554     S
V7     V8    10.0   .     S
V7     V9    10.0   .     S
V7     V17    10.0   .     S
V8     V9    10.0   .     S
V8     V7    10.0   1_556     S
V8     V10    10.0   .     S
V8     V18    10.0   .     S
V9     V10    10.0   1_554     S
V9     V10    10.0   .     S
V9     V11    10.0   1_655     S
V9     V24    10.0   .     S
V10     V7    10.0   1_556     S
V10     V9    10.0   1_556     S
V10     V12    10.0   1_655     S
V10     V23    10.0   1_556     S
V11     V15    10.0   .     S
V11     V12    10.0   1_554     S
V11     V12    10.0   .     S
V11     V9    10.0   1_455     S
V11     V16    10.0   .     S
V11     V21    10.0   .     S
V12     V16    10.0   .     S
V12     V11    10.0   1_556     S
V12     V10    10.0   1_455     S
V12     V15    10.0   1_556     S
V12     V22    10.0   .     S
V13     V17    10.0   .     S
V13     V14    10.0   1_554     S
V13     V14    10.0   .     S
V13     V16    10.0   1_545     S
V13     V18    10.0   .     S
V14     V18    10.0   .     S
V14     V13    10.0   1_556     S
V14     V15    10.0   1_546     S
V14     V17    10.0   1_556     S
V15     V16    10.0   .     S
V15     V16    10.0   1_554     S
V15     V14    10.0   1_564     S
V15     V12    10.0   1_554     S
V16     V15    10.0   1_556     S
V16     V13    10.0   1_565     S
V17     V18    10.0   .     S
V17     V18    10.0   1_554     S
V17     V14    10.0   1_554     S
V17     V19    10.0   .     S
V18     V17    10.0   1_556     S
V18     V20    10.0   .     S
V19     V22    10.0   1_554     S
V19     V20    10.0   .     S
V19     V20    10.0   1_554     S
V19     V21    10.0   .     S
V19     V6    10.0   1_554     S
V20     V21    10.0   .     S
V20     V19    10.0   1_556     S
V20     V22    10.0   .     S
V21     V22    10.0   .     S
V21     V22    10.0   1_554     S
V21     V23    10.0   1_455     S
V22     V19    10.0   1_556     S
V22     V21    10.0   1_556     S
V22     V24    10.0   1_455     S
V23     V2    10.0   1_554     S
V23     V24    10.0   .     S
V23     V24    10.0   1_554     S
V23     V21    10.0   1_655     S
V23     V10    10.0   1_554     S
V24     V23    10.0   1_556     S
V24     V22    10.0   1_655     S
