data_wkr
_audit_creation_date              2020-02-02
_audit_creation_method            'Pymatgen'
_symmetry_space_group_name_H-M    'P1'
_symmetry_Int_Tables_number       1
loop_
_symmetry_equiv_pos_as_xyz
  x,y,z
_cell_length_a                    31.4624
_cell_length_b                    31.4624
_cell_length_c                    36.3302
_cell_angle_alpha                 90.0
_cell_angle_beta                 90.0
_cell_angle_gamma                 120.0
loop_
_atom_site_label
_atom_site_type_symbol
_atom_site_fract_x
_atom_site_fract_y
_atom_site_fract_z
V1     V     0.5168   0.8502   0.1376
V2     V     0.3333   0.4832   0.1376
V3     V     0.1498   0.6667   0.1376
V4     V     0.3333   0.8502   0.3624
V5     V     0.5168   0.6667   0.3624
V6     V     0.1498   0.4832   0.3624
V7     V     0.4832   0.3333   0.3624
V8     V     0.8502   0.5168   0.3624
V9     V     0.6667   0.1498   0.3624
V10     V     0.6667   0.5168   0.1376
V11     V     0.4832   0.1498   0.1376
V12     V     0.8502   0.3333   0.1376
V13     V     0.3333   0.8502   0.6376
V14     V     0.5168   0.6667   0.6376
V15     V     0.1498   0.4832   0.6376
V16     V     0.5168   0.8502   0.8624
V17     V     0.3333   0.4832   0.8624
V18     V     0.1498   0.6667   0.8624
V19     V     0.4832   0.3333   0.6376
V20     V     0.8502   0.5168   0.6376
V21     V     0.6667   0.1498   0.6376
V22     V     0.6667   0.5168   0.8624
V23     V     0.4832   0.1498   0.8624
V24     V     0.8502   0.3333   0.8624
loop_
_geom_bond_atom_site_label_1
_geom_bond_atom_site_label_2
_geom_bond_distance
_geom_bond_site_symmetry_2
_ccdc_geom_bond_type
V1     V2    10.0   .     S
V1     V3    10.0   .     S
V1     V4    10.0   .     S
V1     V5    10.0   .     S
V1     V11    10.0   1_565     S
V1     V16    10.0   1_554     S
V2     V3    10.0   .     S
V2     V5    10.0   .     S
V2     V6    10.0   .     S
V2     V10    10.0   .     S
V2     V17    10.0   1_554     S
V3     V4    10.0   .     S
V3     V6    10.0   .     S
V3     V12    10.0   1_455     S
V3     V18    10.0   1_554     S
V4     V6    10.0   .     S
V4     V5    10.0   .     S
V4     V9    10.0   1_565     S
V4     V13    10.0   .     S
V5     V6    10.0   .     S
V5     V7    10.0   .     S
V5     V14    10.0   .     S
V6     V8    10.0   1_455     S
V6     V15    10.0   .     S
V7     V8    10.0   .     S
V7     V9    10.0   .     S
V7     V10    10.0   .     S
V7     V11    10.0   .     S
V7     V19    10.0   .     S
V8     V9    10.0   .     S
V8     V10    10.0   .     S
V8     V12    10.0   .     S
V8     V6    10.0   1_655     S
V8     V20    10.0   .     S
V9     V12    10.0   .     S
V9     V11    10.0   .     S
V9     V4    10.0   1_545     S
V9     V21    10.0   .     S
V10     V11    10.0   .     S
V10     V12    10.0   .     S
V10     V22    10.0   1_554     S
V11     V12    10.0   .     S
V11     V1    10.0   1_545     S
V11     V23    10.0   1_554     S
V12     V3    10.0   1_655     S
V12     V24    10.0   1_554     S
V13     V14    10.0   .     S
V13     V15    10.0   .     S
V13     V16    10.0   .     S
V13     V18    10.0   .     S
V13     V21    10.0   1_565     S
V14     V15    10.0   .     S
V14     V17    10.0   .     S
V14     V16    10.0   .     S
V14     V19    10.0   .     S
V15     V17    10.0   .     S
V15     V18    10.0   .     S
V15     V20    10.0   1_455     S
V16     V17    10.0   .     S
V16     V18    10.0   .     S
V16     V23    10.0   1_565     S
V16     V1    10.0   1_556     S
V17     V18    10.0   .     S
V17     V22    10.0   .     S
V17     V2    10.0   1_556     S
V18     V24    10.0   1_455     S
V18     V3    10.0   1_556     S
V19     V20    10.0   .     S
V19     V21    10.0   .     S
V19     V22    10.0   .     S
V19     V23    10.0   .     S
V20     V21    10.0   .     S
V20     V24    10.0   .     S
V20     V22    10.0   .     S
V20     V15    10.0   1_655     S
V21     V24    10.0   .     S
V21     V23    10.0   .     S
V21     V13    10.0   1_545     S
V22     V23    10.0   .     S
V22     V24    10.0   .     S
V22     V10    10.0   1_556     S
V23     V24    10.0   .     S
V23     V16    10.0   1_545     S
V23     V11    10.0   1_556     S
V24     V18    10.0   1_655     S
V24     V12    10.0   1_556     S
