data_wlf
_audit_creation_date              2020-02-02
_audit_creation_method            'Pymatgen'
_symmetry_space_group_name_H-M    'P1'
_symmetry_Int_Tables_number       1
loop_
_symmetry_equiv_pos_as_xyz
  x,y,z
_cell_length_a                    64.5318
_cell_length_b                    64.5318
_cell_length_c                    16.9538
_cell_angle_alpha                 90.0
_cell_angle_beta                 90.0
_cell_angle_gamma                 120.0
loop_
_atom_site_label
_atom_site_type_symbol
_atom_site_fract_x
_atom_site_fract_y
_atom_site_fract_z
V1     V     0.2439   0.8383   0.4094
V2     V     0.0894   0.8284   0.2573
V3     V     0.1617   0.7561   0.9094
V4     V     0.1716   0.9106   0.7573
V5     V     0.505   0.5772   0.424
V6     V     0.495   0.4228   0.576
V7     V     0.5772   0.505   0.076
V8     V     0.4228   0.495   0.924
V9     V     0.4056   0.2439   0.5906
V10     V     0.2611   0.0894   0.7427
V11     V     0.4056   0.1617   0.0906
V12     V     0.2611   0.1716   0.2427
V13     V     0.0894   0.2611   0.7573
V14     V     0.2439   0.4056   0.9094
V15     V     0.1617   0.4056   0.4094
V16     V     0.1716   0.2611   0.2573
V17     V     0.7389   0.8284   0.7573
V18     V     0.5944   0.8383   0.9094
V19     V     0.7389   0.9106   0.2573
V20     V     0.5944   0.7561   0.4094
V21     V     0.5772   0.0722   0.576
V22     V     0.4228   0.9278   0.424
V23     V     0.495   0.0722   0.076
V24     V     0.505   0.9278   0.924
V25     V     0.7561   0.1617   0.5906
V26     V     0.9106   0.1716   0.7427
V27     V     0.8383   0.2439   0.0906
V28     V     0.8284   0.0894   0.2427
V29     V     0.8284   0.7389   0.7427
V30     V     0.8383   0.5944   0.5906
V31     V     0.9106   0.7389   0.2427
V32     V     0.7561   0.5944   0.0906
V33     V     0.0722   0.495   0.424
V34     V     0.9278   0.505   0.576
V35     V     0.0722   0.5772   0.924
V36     V     0.9278   0.4228   0.076
loop_
_geom_bond_atom_site_label_1
_geom_bond_atom_site_label_2
_geom_bond_distance
_geom_bond_site_symmetry_2
_ccdc_geom_bond_type
V1     V4    10.0   .     S
V1     V3    10.0   .     S
V1     V2    10.0   .     S
V1     V3    10.0   1_554     S
V1     V22    10.0   .     S
V2     V4    10.0   .     S
V2     V3    10.0   1_554     S
V2     V4    10.0   1_554     S
V2     V31    10.0   1_455     S
V3     V2    10.0   1_556     S
V3     V1    10.0   1_556     S
V3     V4    10.0   .     S
V3     V35    10.0   .     S
V4     V2    10.0   1_556     S
V4     V10    10.0   1_565     S
V5     V7    10.0   .     S
V5     V8    10.0   1_554     S
V5     V6    10.0   .     S
V5     V8    10.0   .     S
V5     V20    10.0   .     S
V6     V7    10.0   .     S
V6     V8    10.0   .     S
V6     V7    10.0   1_556     S
V6     V9    10.0   .     S
V7     V6    10.0   1_554     S
V7     V8    10.0   1_554     S
V7     V32    10.0   .     S
V8     V5    10.0   1_556     S
V8     V7    10.0   1_556     S
V8     V14    10.0   .     S
V9     V10    10.0   .     S
V9     V12    10.0   .     S
V9     V11    10.0   .     S
V9     V11    10.0   1_556     S
V10     V4    10.0   1_545     S
V10     V12    10.0   .     S
V10     V11    10.0   1_556     S
V10     V12    10.0   1_556     S
V11     V12    10.0   .     S
V11     V10    10.0   1_554     S
V11     V9    10.0   1_554     S
V11     V23    10.0   .     S
V12     V10    10.0   1_554     S
V12     V16    10.0   .     S
V13     V16    10.0   1_556     S
V13     V14    10.0   .     S
V13     V15    10.0   .     S
V13     V16    10.0   .     S
V13     V26    10.0   1_455     S
V14     V16    10.0   1_556     S
V14     V15    10.0   1_556     S
V14     V15    10.0   .     S
V15     V14    10.0   1_554     S
V15     V16    10.0   .     S
V15     V33    10.0   .     S
V16     V14    10.0   1_554     S
V16     V13    10.0   1_554     S
V17     V20    10.0   .     S
V17     V19    10.0   .     S
V17     V18    10.0   .     S
V17     V19    10.0   1_556     S
V17     V29    10.0   .     S
V18     V20    10.0   .     S
V18     V19    10.0   1_556     S
V18     V20    10.0   1_556     S
V18     V24    10.0   .     S
V19     V18    10.0   1_554     S
V19     V17    10.0   1_554     S
V19     V20    10.0   .     S
V19     V28    10.0   1_565     S
V20     V18    10.0   1_554     S
V21     V22    10.0   1_545     S
V21     V24    10.0   1_545     S
V21     V23    10.0   1_556     S
V21     V23    10.0   .     S
V21     V25    10.0   .     S
V22     V21    10.0   1_565     S
V22     V24    10.0   .     S
V22     V23    10.0   1_565     S
V22     V24    10.0   1_554     S
V23     V21    10.0   1_554     S
V23     V24    10.0   1_544     S
V23     V22    10.0   1_545     S
V24     V21    10.0   1_565     S
V24     V23    10.0   1_566     S
V24     V22    10.0   1_556     S
V25     V26    10.0   .     S
V25     V28    10.0   .     S
V25     V27    10.0   .     S
V25     V27    10.0   1_556     S
V26     V13    10.0   1_655     S
V26     V28    10.0   .     S
V26     V27    10.0   1_556     S
V26     V28    10.0   1_556     S
V27     V28    10.0   .     S
V27     V26    10.0   1_554     S
V27     V25    10.0   1_554     S
V27     V36    10.0   .     S
V28     V19    10.0   1_545     S
V28     V26    10.0   1_554     S
V29     V32    10.0   1_556     S
V29     V31    10.0   1_556     S
V29     V30    10.0   .     S
V29     V31    10.0   .     S
V30     V32    10.0   1_556     S
V30     V31    10.0   .     S
V30     V32    10.0   .     S
V30     V34    10.0   .     S
V31     V2    10.0   1_655     S
V31     V29    10.0   1_554     S
V31     V32    10.0   .     S
V32     V29    10.0   1_554     S
V32     V30    10.0   1_554     S
V33     V34    10.0   1_455     S
V33     V35    10.0   .     S
V33     V36    10.0   1_455     S
V33     V35    10.0   1_554     S
V34     V33    10.0   1_655     S
V34     V35    10.0   1_655     S
V34     V36    10.0   1_556     S
V34     V36    10.0   .     S
V35     V34    10.0   1_455     S
V35     V33    10.0   1_556     S
V35     V36    10.0   1_456     S
V36     V34    10.0   1_554     S
V36     V33    10.0   1_655     S
V36     V35    10.0   1_654     S
