data_wlg
_audit_creation_date              2020-02-02
_audit_creation_method            'Pymatgen'
_symmetry_space_group_name_H-M    'P1'
_symmetry_Int_Tables_number       1
loop_
_symmetry_equiv_pos_as_xyz
  x,y,z
_cell_length_a                    30.8613
_cell_length_b                    30.8613
_cell_length_c                    48.9246
_cell_angle_alpha                 90.0
_cell_angle_beta                 90.0
_cell_angle_gamma                 120.0
loop_
_atom_site_label
_atom_site_type_symbol
_atom_site_fract_x
_atom_site_fract_y
_atom_site_fract_z
V1     V     0.9978   0.8118   0.8522
V2     V     0.3356   0.8548   0.8145
V3     V     0.6644   0.5193   0.6855
V4     V     0.0022   0.814   0.6478
V5     V     0.3311   0.8526   0.0189
V6     V     0.6689   0.1474   0.9811
V7     V     0.0022   0.1882   0.1478
V8     V     0.6644   0.1452   0.1855
V9     V     0.6689   0.5215   0.4811
V10     V     0.3311   0.4785   0.5189
V11     V     0.9978   0.186   0.3522
V12     V     0.3356   0.4807   0.3145
V13     V     0.1452   0.4807   0.8145
V14     V     0.1882   0.186   0.8522
V15     V     0.186   0.1882   0.6478
V16     V     0.4807   0.1452   0.6855
V17     V     0.1474   0.4785   0.0189
V18     V     0.8526   0.5215   0.9811
V19     V     0.8548   0.5193   0.1855
V20     V     0.8118   0.814   0.1478
V21     V     0.4785   0.1474   0.4811
V22     V     0.5215   0.8526   0.5189
V23     V     0.5193   0.8548   0.3145
V24     V     0.814   0.8118   0.3522
V25     V     0.5193   0.6644   0.8145
V26     V     0.814   0.0022   0.8522
V27     V     0.8118   0.9978   0.6478
V28     V     0.8548   0.3356   0.6855
V29     V     0.5215   0.6689   0.0189
V30     V     0.4785   0.3311   0.9811
V31     V     0.186   0.9978   0.1478
V32     V     0.4807   0.3356   0.1855
V33     V     0.1474   0.6689   0.5189
V34     V     0.8526   0.3311   0.4811
V35     V     0.1452   0.6644   0.3145
V36     V     0.1882   0.0022   0.3522
loop_
_geom_bond_atom_site_label_1
_geom_bond_atom_site_label_2
_geom_bond_distance
_geom_bond_site_symmetry_2
_ccdc_geom_bond_type
V1     V18    10.0   .     S
V1     V26    10.0   1_565     S
V1     V2    10.0   1_655     S
V1     V4    10.0   1_655     S
V1     V14    10.0   1_665     S
V2     V16    10.0   1_565     S
V2     V1    10.0   1_455     S
V2     V25    10.0   .     S
V2     V5    10.0   1_556     S
V2     V13    10.0   .     S
V3     V25    10.0   .     S
V3     V16    10.0   .     S
V3     V4    10.0   1_655     S
V3     V9    10.0   .     S
V3     V28    10.0   .     S
V4     V33    10.0   .     S
V4     V3    10.0   1_455     S
V4     V15    10.0   1_565     S
V4     V1    10.0   1_455     S
V4     V27    10.0   1_455     S
V5     V31    10.0   .     S
V5     V2    10.0   1_554     S
V5     V17    10.0   .     S
V5     V6    10.0   1_564     S
V5     V29    10.0   .     S
V6     V26    10.0   .     S
V6     V5    10.0   1_546     S
V6     V18    10.0   .     S
V6     V8    10.0   1_556     S
V6     V30    10.0   .     S
V7     V17    10.0   .     S
V7     V31    10.0   1_545     S
V7     V8    10.0   1_455     S
V7     V11    10.0   1_455     S
V7     V20    10.0   1_445     S
V8     V23    10.0   1_545     S
V8     V6    10.0   1_554     S
V8     V7    10.0   1_655     S
V8     V32    10.0   .     S
V8     V19    10.0   .     S
V9     V24    10.0   .     S
V9     V34    10.0   .     S
V9     V10    10.0   .     S
V9     V21    10.0   .     S
V10     V15    10.0   .     S
V10     V33    10.0   .     S
V10     V12    10.0   .     S
V10     V22    10.0   .     S
V11     V34    10.0   .     S
V11     V24    10.0   1_545     S
V11     V12    10.0   1_655     S
V11     V7    10.0   1_655     S
V11     V36    10.0   1_655     S
V12     V32    10.0   .     S
V12     V11    10.0   1_455     S
V12     V23    10.0   .     S
V12     V35    10.0   .     S
V13     V28    10.0   1_455     S
V13     V14    10.0   .     S
V13     V17    10.0   1_556     S
V13     V25    10.0   .     S
V14     V30    10.0   .     S
V14     V1    10.0   1_445     S
V14     V15    10.0   .     S
V14     V26    10.0   1_455     S
V15     V4    10.0   1_545     S
V15     V27    10.0   1_445     S
V15     V16    10.0   .     S
V16     V2    10.0   1_545     S
V16     V28    10.0   .     S
V16     V21    10.0   .     S
V17     V13    10.0   1_554     S
V17     V29    10.0   .     S
V17     V18    10.0   1_454     S
V18     V17    10.0   1_656     S
V18     V30    10.0   .     S
V18     V19    10.0   1_556     S
V19     V35    10.0   1_655     S
V19     V18    10.0   1_554     S
V19     V20    10.0   .     S
V19     V32    10.0   .     S
V20     V29    10.0   .     S
V20     V7    10.0   1_665     S
V20     V24    10.0   .     S
V20     V31    10.0   1_655     S
V21     V36    10.0   .     S
V21     V22    10.0   1_545     S
V21     V34    10.0   .     S
V22     V27    10.0   .     S
V22     V21    10.0   1_565     S
V22     V23    10.0   .     S
V22     V33    10.0   .     S
V23     V8    10.0   1_565     S
V23     V35    10.0   .     S
V23     V24    10.0   .     S
V24     V11    10.0   1_565     S
V24     V36    10.0   1_665     S
V25     V26    10.0   1_565     S
V25     V29    10.0   1_556     S
V26     V1    10.0   1_545     S
V26     V25    10.0   1_545     S
V26     V14    10.0   1_655     S
V26     V27    10.0   1_545     S
V27     V15    10.0   1_665     S
V27     V4    10.0   1_655     S
V27     V28    10.0   1_565     S
V27     V26    10.0   1_565     S
V28     V13    10.0   1_655     S
V28     V27    10.0   1_545     S
V28     V34    10.0   .     S
V29     V25    10.0   1_554     S
V29     V30    10.0   1_554     S
V30     V29    10.0   1_556     S
V30     V32    10.0   1_556     S
V31     V7    10.0   1_565     S
V31     V20    10.0   1_455     S
V31     V32    10.0   1_565     S
V31     V36    10.0   1_565     S
V32     V30    10.0   1_554     S
V32     V31    10.0   1_545     S
V33     V34    10.0   1_455     S
V33     V35    10.0   .     S
V34     V33    10.0   1_655     S
V35     V19    10.0   1_455     S
V35     V36    10.0   1_565     S
V36     V24    10.0   1_445     S
V36     V35    10.0   1_545     S
V36     V11    10.0   1_455     S
V36     V31    10.0   1_545     S
