data_wll
_audit_creation_date              2020-02-02
_audit_creation_method            'Pymatgen'
_symmetry_space_group_name_H-M    'P1'
_symmetry_Int_Tables_number       1
loop_
_symmetry_equiv_pos_as_xyz
  x,y,z
_cell_length_a                    25.4562
_cell_length_b                    25.4562
_cell_length_c                    35.7091
_cell_angle_alpha                 90.0
_cell_angle_beta                 90.0
_cell_angle_gamma                 120.0
loop_
_atom_site_label
_atom_site_type_symbol
_atom_site_fract_x
_atom_site_fract_y
_atom_site_fract_z
V1     V     0.6149   0.7014   0.5636
V2     V     0.5801   0.9482   0.7697
V3     V     0.2986   0.9135   0.5636
V4     V     0.3681   0.4199   0.7697
V5     V     0.0865   0.3851   0.5636
V6     V     0.0518   0.6319   0.7697
V7     V     0.9482   0.3681   0.2303
V8     V     0.9135   0.6149   0.4364
V9     V     0.6319   0.5801   0.2303
V10     V     0.3851   0.2986   0.4364
V11     V     0.4199   0.0518   0.2303
V12     V     0.7014   0.0865   0.4364
V13     V     0.2468   0.2815   0.1031
V14     V     0.2815   0.0347   0.8969
V15     V     0.9653   0.2468   0.8969
V16     V     0.0347   0.7532   0.1031
V17     V     0.7532   0.7185   0.8969
V18     V     0.7185   0.9653   0.1031
loop_
_geom_bond_atom_site_label_1
_geom_bond_atom_site_label_2
_geom_bond_distance
_geom_bond_site_symmetry_2
_ccdc_geom_bond_type
V1     V10    10.0   .     S
V1     V12    10.0   1_565     S
V1     V4    10.0   .     S
V1     V2    10.0   .     S
V1     V8    10.0   .     S
V2     V17    10.0   .     S
V2     V14    10.0   1_565     S
V2     V3    10.0   .     S
V2     V15    10.0   1_565     S
V3     V12    10.0   1_565     S
V3     V8    10.0   1_455     S
V3     V6    10.0   .     S
V3     V10    10.0   1_565     S
V4     V15    10.0   1_455     S
V4     V17    10.0   .     S
V4     V5    10.0   .     S
V4     V14    10.0   .     S
V5     V10    10.0   .     S
V5     V6    10.0   .     S
V5     V8    10.0   1_455     S
V5     V12    10.0   1_455     S
V6     V14    10.0   1_565     S
V6     V15    10.0   1_455     S
V6     V17    10.0   1_455     S
V7     V18    10.0   1_545     S
V7     V16    10.0   1_655     S
V7     V12    10.0   .     S
V7     V8    10.0   .     S
V7     V13    10.0   1_655     S
V8     V3    10.0   1_655     S
V8     V5    10.0   1_655     S
V8     V9    10.0   .     S
V9     V16    10.0   1_655     S
V9     V13    10.0   .     S
V9     V10    10.0   .     S
V9     V18    10.0   .     S
V10     V3    10.0   1_545     S
V10     V11    10.0   .     S
V11     V18    10.0   1_545     S
V11     V12    10.0   .     S
V11     V13    10.0   .     S
V11     V16    10.0   1_545     S
V12     V3    10.0   1_545     S
V12     V1    10.0   1_545     S
V12     V5    10.0   1_655     S
V13     V7    10.0   1_455     S
V13     V14    10.0   1_554     S
V13     V15    10.0   1_454     S
V14     V6    10.0   1_545     S
V14     V2    10.0   1_545     S
V14     V13    10.0   1_556     S
V14     V16    10.0   1_546     S
V15     V4    10.0   1_655     S
V15     V6    10.0   1_655     S
V15     V2    10.0   1_545     S
V15     V13    10.0   1_656     S
V15     V18    10.0   1_546     S
V16     V9    10.0   1_455     S
V16     V7    10.0   1_455     S
V16     V14    10.0   1_564     S
V16     V11    10.0   1_565     S
V16     V17    10.0   1_454     S
V17     V16    10.0   1_656     S
V17     V6    10.0   1_655     S
V17     V18    10.0   1_556     S
V18     V7    10.0   1_565     S
V18     V11    10.0   1_565     S
V18     V17    10.0   1_554     S
V18     V15    10.0   1_564     S
