data_wlq
_audit_creation_date              2020-02-02
_audit_creation_method            'Pymatgen'
_symmetry_space_group_name_H-M    'P1'
_symmetry_Int_Tables_number       1
loop_
_symmetry_equiv_pos_as_xyz
  x,y,z
_cell_length_a                    48.5051
_cell_length_b                    48.5051
_cell_length_c                    19.2277
_cell_angle_alpha                 90.0
_cell_angle_beta                 90.0
_cell_angle_gamma                 120.0
loop_
_atom_site_label
_atom_site_type_symbol
_atom_site_fract_x
_atom_site_fract_y
_atom_site_fract_z
V1     V     0.4788   0.3661   0.3333
V2     V     0.3661   0.4788   0.1667
V3     V     0.6339   0.1128   0.3333
V4     V     0.5212   0.8872   0.1667
V5     V     0.1878   0.2206   0.5
V6     V     0.3006   0.4461   0.6667
V7     V     0.8545   0.3006   0.3333
V8     V     0.9672   0.1878   0.5
V9     V     0.2206   0.0328   0.5
V10     V     0.4461   0.1455   0.3333
V11     V     0.4788   0.1128   0.8333
V12     V     0.3661   0.8872   0.6667
V13     V     0.8122   0.7794   0.5
V14     V     0.6994   0.5539   0.3333
V15     V     0.0328   0.8122   0.5
V16     V     0.1455   0.6994   0.6667
V17     V     0.5539   0.6994   0.1667
V18     V     0.7794   0.8122   0.0
V19     V     0.2206   0.1878   0.0
V20     V     0.4461   0.3006   0.8333
V21     V     0.1878   0.9672   0.0
V22     V     0.3006   0.8545   0.1667
V23     V     0.8122   0.0328   0.0
V24     V     0.6994   0.1455   0.8333
V25     V     0.1128   0.6339   0.1667
V26     V     0.8872   0.5212   0.3333
V27     V     0.1455   0.4461   0.1667
V28     V     0.0328   0.2206   0.0
V29     V     0.1128   0.4788   0.6667
V30     V     0.8872   0.3661   0.8333
V31     V     0.9672   0.7794   0.0
V32     V     0.8545   0.5539   0.8333
V33     V     0.5539   0.8545   0.6667
V34     V     0.7794   0.9672   0.5
V35     V     0.6339   0.5212   0.8333
V36     V     0.5212   0.6339   0.6667
loop_
_geom_bond_atom_site_label_1
_geom_bond_atom_site_label_2
_geom_bond_distance
_geom_bond_site_symmetry_2
_ccdc_geom_bond_type
V1     V2    10.0   .     S
V1     V10    10.0   .     S
V1     V14    10.0   .     S
V1     V20    10.0   .     S
V1     V20    10.0   1_554     S
V2     V27    10.0   .     S
V2     V17    10.0   .     S
V2     V6    10.0   .     S
V2     V6    10.0   1_554     S
V3     V4    10.0   1_545     S
V3     V10    10.0   .     S
V3     V7    10.0   .     S
V3     V24    10.0   .     S
V3     V24    10.0   1_554     S
V4     V3    10.0   1_565     S
V4     V17    10.0   .     S
V4     V22    10.0   .     S
V4     V33    10.0   .     S
V4     V33    10.0   1_554     S
V5     V6    10.0   .     S
V5     V8    10.0   1_455     S
V5     V9    10.0   .     S
V5     V19    10.0   1_556     S
V5     V19    10.0   .     S
V6     V29    10.0   .     S
V6     V36    10.0   .     S
V6     V2    10.0   1_556     S
V7     V8    10.0   .     S
V7     V26    10.0   .     S
V7     V30    10.0   1_554     S
V7     V30    10.0   .     S
V8     V5    10.0   1_655     S
V8     V34    10.0   1_545     S
V8     V28    10.0   1_656     S
V8     V28    10.0   1_655     S
V9     V10    10.0   .     S
V9     V15    10.0   1_545     S
V9     V21    10.0   1_546     S
V9     V21    10.0   1_545     S
V10     V11    10.0   1_554     S
V10     V11    10.0   .     S
V11     V12    10.0   1_545     S
V11     V20    10.0   .     S
V11     V24    10.0   .     S
V11     V10    10.0   1_556     S
V12     V11    10.0   1_565     S
V12     V16    10.0   .     S
V12     V33    10.0   .     S
V12     V22    10.0   1_556     S
V12     V22    10.0   .     S
V13     V14    10.0   .     S
V13     V15    10.0   1_655     S
V13     V34    10.0   .     S
V13     V18    10.0   1_556     S
V13     V18    10.0   .     S
V14     V26    10.0   .     S
V14     V35    10.0   1_554     S
V14     V35    10.0   .     S
V15     V9    10.0   1_565     S
V15     V16    10.0   .     S
V15     V13    10.0   1_455     S
V15     V31    10.0   1_456     S
V15     V31    10.0   1_455     S
V16     V29    10.0   .     S
V16     V25    10.0   .     S
V16     V25    10.0   1_556     S
V17     V18    10.0   .     S
V17     V36    10.0   1_554     S
V17     V36    10.0   .     S
V18     V31    10.0   .     S
V18     V23    10.0   1_565     S
V18     V13    10.0   1_554     S
V19     V20    10.0   1_554     S
V19     V21    10.0   1_545     S
V19     V28    10.0   .     S
V19     V5    10.0   1_554     S
V20     V19    10.0   1_556     S
V20     V35    10.0   .     S
V20     V1    10.0   1_556     S
V21     V22    10.0   .     S
V21     V19    10.0   1_565     S
V21     V31    10.0   1_455     S
V21     V9    10.0   1_564     S
V21     V9    10.0   1_565     S
V22     V25    10.0   .     S
V22     V12    10.0   1_554     S
V23     V24    10.0   1_554     S
V23     V18    10.0   1_545     S
V23     V28    10.0   1_655     S
V23     V34    10.0   1_545     S
V23     V34    10.0   1_544     S
V24     V23    10.0   1_556     S
V24     V30    10.0   .     S
V24     V3    10.0   1_556     S
V25     V26    10.0   1_455     S
V25     V27    10.0   .     S
V25     V16    10.0   1_554     S
V26     V25    10.0   1_655     S
V26     V32    10.0   1_554     S
V26     V32    10.0   .     S
V27     V28    10.0   .     S
V27     V29    10.0   1_554     S
V27     V29    10.0   .     S
V28     V23    10.0   1_455     S
V28     V8    10.0   1_454     S
V28     V8    10.0   1_455     S
V29     V30    10.0   1_455     S
V29     V27    10.0   1_556     S
V30     V29    10.0   1_655     S
V30     V32    10.0   .     S
V30     V7    10.0   1_556     S
V31     V21    10.0   1_655     S
V31     V32    10.0   1_554     S
V31     V15    10.0   1_654     S
V31     V15    10.0   1_655     S
V32     V31    10.0   1_556     S
V32     V35    10.0   .     S
V32     V26    10.0   1_556     S
V33     V34    10.0   .     S
V33     V36    10.0   .     S
V33     V4    10.0   1_556     S
V34     V8    10.0   1_565     S
V34     V23    10.0   1_565     S
V34     V23    10.0   1_566     S
V35     V36    10.0   .     S
V35     V14    10.0   1_556     S
V36     V17    10.0   1_556     S
