data_wlr
_audit_creation_date              2020-02-02
_audit_creation_method            'Pymatgen'
_symmetry_space_group_name_H-M    'P1'
_symmetry_Int_Tables_number       1
loop_
_symmetry_equiv_pos_as_xyz
  x,y,z
_cell_length_a                    44.8528
_cell_length_b                    44.8528
_cell_length_c                    23.0238
_cell_angle_alpha                 90.0
_cell_angle_beta                 90.0
_cell_angle_gamma                 120.0
loop_
_atom_site_label
_atom_site_type_symbol
_atom_site_fract_x
_atom_site_fract_y
_atom_site_fract_z
V1     V     0.5717   0.8393   0.73
V2     V     0.7616   0.8274   0.9367
V3     V     0.7616   0.9342   0.4367
V4     V     0.5717   0.7324   0.23
V5     V     0.494   0.0949   0.8967
V6     V     0.506   0.9051   0.1033
V7     V     0.6009   0.0949   0.3967
V8     V     0.3991   0.9051   0.6033
V9     V     0.7324   0.1607   0.77
V10     V     0.9342   0.1726   0.5633
V11     V     0.8274   0.0658   0.0633
V12     V     0.8393   0.2676   0.27
V13     V     0.9051   0.3991   0.8967
V14     V     0.0949   0.6009   0.1033
V15     V     0.0949   0.494   0.6033
V16     V     0.9051   0.506   0.3967
V17     V     0.6009   0.506   0.8967
V18     V     0.3991   0.494   0.1033
V19     V     0.506   0.6009   0.6033
V20     V     0.494   0.3991   0.3967
V21     V     0.1607   0.4283   0.23
V22     V     0.1726   0.2384   0.4367
V23     V     0.2676   0.4283   0.73
V24     V     0.0658   0.2384   0.9367
V25     V     0.2384   0.0658   0.5633
V26     V     0.4283   0.2676   0.77
V27     V     0.4283   0.1607   0.27
V28     V     0.2384   0.1726   0.0633
V29     V     0.0658   0.8274   0.4367
V30     V     0.2676   0.8393   0.23
V31     V     0.1607   0.7324   0.73
V32     V     0.1726   0.9342   0.9367
V33     V     0.8274   0.7616   0.5633
V34     V     0.8393   0.5717   0.77
V35     V     0.7324   0.5717   0.27
V36     V     0.9342   0.7616   0.0633
loop_
_geom_bond_atom_site_label_1
_geom_bond_atom_site_label_2
_geom_bond_distance
_geom_bond_site_symmetry_2
_ccdc_geom_bond_type
V1     V2    10.0   .     S
V1     V3    10.0   .     S
V1     V19    10.0   .     S
V1     V8    10.0   .     S
V1     V6    10.0   1_556     S
V2     V4    10.0   1_556     S
V2     V36    10.0   1_556     S
V2     V11    10.0   1_566     S
V2     V33    10.0   .     S
V3     V4    10.0   .     S
V3     V10    10.0   1_565     S
V3     V33    10.0   .     S
V3     V11    10.0   1_565     S
V4     V2    10.0   1_554     S
V4     V18    10.0   .     S
V4     V6    10.0   .     S
V4     V19    10.0   .     S
V5     V6    10.0   1_546     S
V5     V8    10.0   1_545     S
V5     V9    10.0   .     S
V5     V26    10.0   .     S
V5     V27    10.0   1_556     S
V6     V7    10.0   1_565     S
V6     V5    10.0   1_564     S
V6     V30    10.0   .     S
V6     V1    10.0   1_554     S
V7     V6    10.0   1_545     S
V7     V8    10.0   1_545     S
V7     V12    10.0   .     S
V7     V27    10.0   .     S
V7     V9    10.0   .     S
V8     V5    10.0   1_565     S
V8     V7    10.0   1_565     S
V8     V31    10.0   .     S
V8     V30    10.0   .     S
V9     V10    10.0   .     S
V9     V11    10.0   1_556     S
V9     V13    10.0   .     S
V10     V3    10.0   1_545     S
V10     V12    10.0   .     S
V10     V22    10.0   1_655     S
V10     V24    10.0   1_655     S
V11     V9    10.0   1_554     S
V11     V12    10.0   .     S
V11     V2    10.0   1_544     S
V11     V24    10.0   1_654     S
V11     V3    10.0   1_545     S
V12     V16    10.0   .     S
V12     V13    10.0   1_554     S
V13     V15    10.0   1_655     S
V13     V14    10.0   1_656     S
V13     V34    10.0   .     S
V13     V12    10.0   1_556     S
V14     V13    10.0   1_454     S
V14     V16    10.0   1_455     S
V14     V21    10.0   .     S
V14     V30    10.0   .     S
V14     V31    10.0   1_554     S
V15     V13    10.0   1_455     S
V15     V16    10.0   1_455     S
V15     V23    10.0   .     S
V15     V31    10.0   .     S
V15     V21    10.0   .     S
V16     V14    10.0   1_655     S
V16     V15    10.0   1_655     S
V16     V35    10.0   .     S
V16     V34    10.0   .     S
V17     V19    10.0   .     S
V17     V18    10.0   1_556     S
V17     V34    10.0   .     S
V17     V26    10.0   .     S
V17     V35    10.0   1_556     S
V18     V17    10.0   1_554     S
V18     V20    10.0   .     S
V18     V21    10.0   .     S
V18     V23    10.0   1_554     S
V19     V20    10.0   .     S
V19     V23    10.0   .     S
V20     V27    10.0   .     S
V20     V35    10.0   .     S
V20     V26    10.0   .     S
V21     V22    10.0   .     S
V21     V24    10.0   1_554     S
V22     V23    10.0   .     S
V22     V25    10.0   .     S
V22     V10    10.0   1_455     S
V22     V28    10.0   .     S
V23     V24    10.0   .     S
V23     V18    10.0   1_556     S
V24     V21    10.0   1_556     S
V24     V28    10.0   1_556     S
V24     V11    10.0   1_456     S
V24     V10    10.0   1_455     S
V25     V26    10.0   .     S
V25     V27    10.0   .     S
V25     V29    10.0   1_545     S
V25     V32    10.0   1_545     S
V26     V28    10.0   1_556     S
V27     V28    10.0   .     S
V27     V5    10.0   1_554     S
V28     V26    10.0   1_554     S
V28     V32    10.0   1_544     S
V28     V24    10.0   1_554     S
V29     V25    10.0   1_565     S
V29     V30    10.0   .     S
V29     V31    10.0   .     S
V29     V33    10.0   1_455     S
V29     V36    10.0   1_455     S
V30     V32    10.0   1_554     S
V31     V32    10.0   .     S
V31     V14    10.0   1_556     S
V32     V30    10.0   1_556     S
V32     V28    10.0   1_566     S
V32     V36    10.0   1_456     S
V32     V25    10.0   1_565     S
V33     V35    10.0   .     S
V33     V34    10.0   .     S
V33     V29    10.0   1_655     S
V34     V36    10.0   1_556     S
V35     V36    10.0   .     S
V35     V17    10.0   1_554     S
V36     V2    10.0   1_554     S
V36     V32    10.0   1_654     S
V36     V34    10.0   1_554     S
V36     V29    10.0   1_655     S
