data_wls
_audit_creation_date              2020-02-02
_audit_creation_method            'Pymatgen'
_symmetry_space_group_name_H-M    'P1'
_symmetry_Int_Tables_number       1
loop_
_symmetry_equiv_pos_as_xyz
  x,y,z
_cell_length_a                    44.5906
_cell_length_b                    44.5906
_cell_length_c                    23.8347
_cell_angle_alpha                 90.0
_cell_angle_beta                 90.0
_cell_angle_gamma                 120.0
loop_
_atom_site_label
_atom_site_type_symbol
_atom_site_fract_x
_atom_site_fract_y
_atom_site_fract_z
V1     V     0.2062   0.9758   0.9561
V2     V     0.4605   0.1029   0.8773
V3     V     0.3091   0.4363   0.7106
V4     V     0.4363   0.3091   0.7894
V5     V     0.1029   0.4605   0.6227
V6     V     0.9758   0.2062   0.5439
V7     V     0.7938   0.0242   0.0439
V8     V     0.5395   0.8971   0.1227
V9     V     0.6909   0.5637   0.2894
V10     V     0.5637   0.6909   0.2106
V11     V     0.2062   0.2304   0.4561
V12     V     0.4605   0.3576   0.3773
V13     V     0.2304   0.0242   0.5439
V14     V     0.3576   0.8971   0.6227
V15     V     0.8971   0.5395   0.3773
V16     V     0.0242   0.7938   0.4561
V17     V     0.5637   0.8728   0.7106
V18     V     0.6909   0.1272   0.7894
V19     V     0.1272   0.4363   0.2106
V20     V     0.8728   0.3091   0.2894
V21     V     0.6424   0.1029   0.3773
V22     V     0.7696   0.9758   0.4561
V23     V     0.7938   0.7696   0.5439
V24     V     0.5395   0.6424   0.6227
V25     V     0.1029   0.6424   0.1227
V26     V     0.9758   0.7696   0.0439
V27     V     0.7696   0.7938   0.9561
V28     V     0.6424   0.5395   0.8773
V29     V     0.0242   0.2304   0.9561
V30     V     0.8971   0.3576   0.8773
V31     V     0.1272   0.6909   0.7106
V32     V     0.8728   0.5637   0.7894
V33     V     0.2304   0.2062   0.0439
V34     V     0.3576   0.4605   0.1227
V35     V     0.3091   0.8728   0.2106
V36     V     0.4363   0.1272   0.2894
loop_
_geom_bond_atom_site_label_1
_geom_bond_atom_site_label_2
_geom_bond_distance
_geom_bond_site_symmetry_2
_ccdc_geom_bond_type
V1     V35    10.0   1_556     S
V1     V2    10.0   1_565     S
V1     V26    10.0   1_456     S
V1     V33    10.0   1_566     S
V1     V13    10.0   1_565     S
V2     V14    10.0   1_545     S
V2     V1    10.0   1_545     S
V2     V4    10.0   .     S
V2     V18    10.0   .     S
V2     V36    10.0   1_556     S
V3     V11    10.0   .     S
V3     V4    10.0   .     S
V3     V5    10.0   .     S
V3     V24    10.0   .     S
V3     V34    10.0   1_556     S
V4     V33    10.0   1_556     S
V4     V28    10.0   .     S
V4     V12    10.0   .     S
V5     V30    10.0   1_455     S
V5     V6    10.0   1_455     S
V5     V31    10.0   .     S
V5     V19    10.0   .     S
V6     V20    10.0   .     S
V6     V5    10.0   1_655     S
V6     V22    10.0   1_545     S
V6     V11    10.0   1_655     S
V6     V29    10.0   1_655     S
V7     V18    10.0   1_554     S
V7     V8    10.0   1_545     S
V7     V27    10.0   1_544     S
V7     V29    10.0   1_654     S
V7     V22    10.0   1_545     S
V8     V21    10.0   1_565     S
V8     V7    10.0   1_565     S
V8     V10    10.0   .     S
V8     V35    10.0   .     S
V8     V17    10.0   1_554     S
V9     V23    10.0   .     S
V9     V10    10.0   .     S
V9     V15    10.0   .     S
V9     V12    10.0   .     S
V9     V28    10.0   1_554     S
V10     V27    10.0   1_554     S
V10     V34    10.0   .     S
V10     V24    10.0   .     S
V11     V12    10.0   .     S
V11     V13    10.0   .     S
V11     V6    10.0   1_455     S
V11     V33    10.0   .     S
V12     V34    10.0   .     S
V12     V36    10.0   .     S
V13     V36    10.0   .     S
V13     V14    10.0   1_545     S
V13     V16    10.0   1_545     S
V13     V1    10.0   1_545     S
V14     V2    10.0   1_565     S
V14     V13    10.0   1_565     S
V14     V17    10.0   .     S
V14     V31    10.0   .     S
V14     V35    10.0   .     S
V15     V25    10.0   1_655     S
V15     V16    10.0   1_655     S
V15     V20    10.0   .     S
V15     V32    10.0   .     S
V16     V31    10.0   .     S
V16     V15    10.0   1_455     S
V16     V13    10.0   1_565     S
V16     V23    10.0   1_455     S
V16     V26    10.0   1_455     S
V17     V22    10.0   .     S
V17     V18    10.0   1_565     S
V17     V24    10.0   .     S
V17     V8    10.0   1_556     S
V18     V7    10.0   1_556     S
V18     V17    10.0   1_545     S
V18     V30    10.0   .     S
V18     V21    10.0   .     S
V19     V29    10.0   1_554     S
V19     V20    10.0   1_455     S
V19     V25    10.0   .     S
V19     V34    10.0   .     S
V20     V19    10.0   1_655     S
V20     V21    10.0   .     S
V20     V30    10.0   1_554     S
V21     V8    10.0   1_545     S
V21     V22    10.0   1_545     S
V21     V36    10.0   .     S
V22     V6    10.0   1_565     S
V22     V21    10.0   1_565     S
V22     V23    10.0   .     S
V22     V7    10.0   1_565     S
V23     V24    10.0   .     S
V23     V16    10.0   1_655     S
V23     V27    10.0   .     S
V24     V28    10.0   .     S
V25     V15    10.0   1_455     S
V25     V26    10.0   1_455     S
V25     V35    10.0   .     S
V25     V31    10.0   1_554     S
V26     V32    10.0   1_554     S
V26     V1    10.0   1_654     S
V26     V25    10.0   1_655     S
V26     V27    10.0   1_554     S
V26     V16    10.0   1_655     S
V27     V10    10.0   1_556     S
V27     V28    10.0   .     S
V27     V26    10.0   1_556     S
V27     V7    10.0   1_566     S
V28     V32    10.0   .     S
V28     V9    10.0   1_556     S
V29     V19    10.0   1_556     S
V29     V30    10.0   1_455     S
V29     V33    10.0   1_556     S
V29     V7    10.0   1_456     S
V29     V6    10.0   1_455     S
V30     V5    10.0   1_655     S
V30     V29    10.0   1_655     S
V30     V32    10.0   .     S
V30     V20    10.0   1_556     S
V31     V32    10.0   1_455     S
V31     V25    10.0   1_556     S
V32     V26    10.0   1_556     S
V32     V31    10.0   1_655     S
V33     V4    10.0   1_554     S
V33     V34    10.0   .     S
V33     V29    10.0   1_554     S
V33     V1    10.0   1_544     S
V34     V3    10.0   1_554     S
V35     V1    10.0   1_554     S
V35     V36    10.0   1_565     S
V36     V35    10.0   1_545     S
V36     V2    10.0   1_554     S
