data_wmg
_audit_creation_date              2020-02-02
_audit_creation_method            'Pymatgen'
_symmetry_space_group_name_H-M    'P1'
_symmetry_Int_Tables_number       1
loop_
_symmetry_equiv_pos_as_xyz
  x,y,z
_cell_length_a                    39.0496
_cell_length_b                    39.0496
_cell_length_c                    16.5491
_cell_angle_alpha                 90.0
_cell_angle_beta                 90.0
_cell_angle_gamma                 120.0
loop_
_atom_site_label
_atom_site_type_symbol
_atom_site_fract_x
_atom_site_fract_y
_atom_site_fract_z
V1     V     0.5811   0.5253   0.25
V2     V     0.4189   0.4747   0.75
V3     V     0.6108   0.7522   0.5833
V4     V     0.7225   0.9145   0.0833
V5     V     0.9442   0.4189   0.25
V6     V     0.0558   0.5811   0.75
V7     V     0.808   0.7225   0.9167
V8     V     0.8586   0.6108   0.4167
V9     V     0.7522   0.1414   0.4167
V10     V     0.9145   0.192   0.9167
V11     V     0.1414   0.3892   0.5833
V12     V     0.192   0.2775   0.0833
V13     V     0.2478   0.8586   0.5833
V14     V     0.0855   0.808   0.0833
V15     V     0.4747   0.0558   0.25
V16     V     0.5253   0.9442   0.75
V17     V     0.3892   0.2478   0.4167
V18     V     0.2775   0.0855   0.9167
loop_
_geom_bond_atom_site_label_1
_geom_bond_atom_site_label_2
_geom_bond_distance
_geom_bond_site_symmetry_2
_ccdc_geom_bond_type
V1     V2    10.0   .     S
V1     V3    10.0   .     S
V1     V2    10.0   1_554     S
V1     V17    10.0   .     S
V1     V7    10.0   1_554     S
V1     V8    10.0   .     S
V2     V17    10.0   .     S
V2     V1    10.0   1_556     S
V2     V3    10.0   .     S
V2     V12    10.0   1_556     S
V2     V11    10.0   .     S
V3     V4    10.0   1_556     S
V3     V7    10.0   .     S
V3     V4    10.0   .     S
V3     V16    10.0   .     S
V4     V3    10.0   1_554     S
V4     V16    10.0   1_554     S
V4     V7    10.0   1_554     S
V4     V9    10.0   1_565     S
V4     V10    10.0   1_564     S
V5     V6    10.0   1_655     S
V5     V11    10.0   1_655     S
V5     V6    10.0   1_654     S
V5     V8    10.0   .     S
V5     V10    10.0   1_554     S
V5     V9    10.0   .     S
V6     V5    10.0   1_455     S
V6     V8    10.0   1_455     S
V6     V5    10.0   1_456     S
V6     V11    10.0   .     S
V6     V14    10.0   1_556     S
V6     V13    10.0   .     S
V7     V4    10.0   1_556     S
V7     V8    10.0   1_556     S
V7     V1    10.0   1_556     S
V7     V8    10.0   .     S
V7     V14    10.0   1_656     S
V8     V6    10.0   1_655     S
V8     V7    10.0   1_554     S
V8     V14    10.0   1_655     S
V9     V10    10.0   1_554     S
V9     V4    10.0   1_545     S
V9     V10    10.0   .     S
V9     V16    10.0   1_545     S
V9     V15    10.0   .     S
V10     V9    10.0   1_556     S
V10     V5    10.0   1_556     S
V10     V4    10.0   1_546     S
V10     V11    10.0   1_655     S
V10     V12    10.0   1_656     S
V11     V5    10.0   1_455     S
V11     V12    10.0   1_556     S
V11     V10    10.0   1_455     S
V11     V12    10.0   .     S
V12     V11    10.0   1_554     S
V12     V2    10.0   1_554     S
V12     V10    10.0   1_454     S
V12     V17    10.0   .     S
V12     V18    10.0   1_554     S
V13     V14    10.0   1_556     S
V13     V18    10.0   1_565     S
V13     V14    10.0   .     S
V13     V15    10.0   1_565     S
V13     V16    10.0   .     S
V14     V8    10.0   1_455     S
V14     V7    10.0   1_454     S
V14     V13    10.0   1_554     S
V14     V6    10.0   1_554     S
V14     V18    10.0   1_564     S
V15     V16    10.0   1_545     S
V15     V13    10.0   1_545     S
V15     V16    10.0   1_544     S
V15     V18    10.0   1_554     S
V15     V17    10.0   .     S
V16     V4    10.0   1_556     S
V16     V15    10.0   1_565     S
V16     V9    10.0   1_565     S
V16     V15    10.0   1_566     S
V17     V18    10.0   1_554     S
V17     V18    10.0   .     S
V18     V13    10.0   1_545     S
V18     V14    10.0   1_546     S
V18     V17    10.0   1_556     S
V18     V15    10.0   1_556     S
V18     V12    10.0   1_556     S
