data_wmp
_audit_creation_date              2020-02-02
_audit_creation_method            'Pymatgen'
_symmetry_space_group_name_H-M    'P1'
_symmetry_Int_Tables_number       1
loop_
_symmetry_equiv_pos_as_xyz
  x,y,z
_cell_length_a                    79.1563
_cell_length_b                    79.1563
_cell_length_c                    20.0
_cell_angle_alpha                 90.0
_cell_angle_beta                 90.0
_cell_angle_gamma                 120.0
loop_
_atom_site_label
_atom_site_type_symbol
_atom_site_fract_x
_atom_site_fract_y
_atom_site_fract_z
V1     V     0.2702   0.0719   0.2083
V2     V     0.2702   0.0719   0.7083
V3     V     0.1983   0.9281   0.2917
V4     V     0.1983   0.9281   0.7917
V5     V     0.3965   0.1351   0.4583
V6     V     0.3965   0.1351   0.9583
V7     V     0.4684   0.0632   0.375
V8     V     0.4684   0.0632   0.875
V9     V     0.4052   0.9368   0.125
V10     V     0.4052   0.9368   0.625
V11     V     0.2614   0.8649   0.0417
V12     V     0.2614   0.8649   0.5417
V13     V     0.7386   0.6035   0.4583
V14     V     0.7386   0.6035   0.9583
V15     V     0.5948   0.5316   0.375
V16     V     0.5948   0.5316   0.875
V17     V     0.6035   0.7386   0.0417
V18     V     0.6035   0.7386   0.5417
V19     V     0.5316   0.5948   0.125
V20     V     0.5316   0.5948   0.625
V21     V     0.7298   0.8017   0.2917
V22     V     0.7298   0.8017   0.7917
V23     V     0.8017   0.7298   0.2083
V24     V     0.8017   0.7298   0.7083
V25     V     0.9281   0.7298   0.2083
V26     V     0.9281   0.7298   0.7083
V27     V     0.0719   0.8017   0.2917
V28     V     0.0719   0.8017   0.7917
V29     V     0.9368   0.5316   0.375
V30     V     0.9368   0.5316   0.875
V31     V     0.8649   0.6035   0.4583
V32     V     0.8649   0.6035   0.9583
V33     V     0.1351   0.7386   0.0417
V34     V     0.1351   0.7386   0.5417
V35     V     0.0632   0.5948   0.125
V36     V     0.0632   0.5948   0.625
V37     V     0.8017   0.0719   0.2083
V38     V     0.8017   0.0719   0.7083
V39     V     0.7298   0.9281   0.2917
V40     V     0.7298   0.9281   0.7917
V41     V     0.6035   0.8649   0.0417
V42     V     0.6035   0.8649   0.5417
V43     V     0.5316   0.9368   0.125
V44     V     0.5316   0.9368   0.625
V45     V     0.5948   0.0632   0.375
V46     V     0.5948   0.0632   0.875
V47     V     0.7386   0.1351   0.4583
V48     V     0.7386   0.1351   0.9583
V49     V     0.4052   0.4684   0.125
V50     V     0.4052   0.4684   0.625
V51     V     0.2614   0.3965   0.0417
V52     V     0.2614   0.3965   0.5417
V53     V     0.4684   0.4052   0.375
V54     V     0.4684   0.4052   0.875
V55     V     0.3965   0.2614   0.4583
V56     V     0.3965   0.2614   0.9583
V57     V     0.1983   0.2702   0.2917
V58     V     0.1983   0.2702   0.7917
V59     V     0.2702   0.1983   0.2083
V60     V     0.2702   0.1983   0.7083
V61     V     0.9281   0.1983   0.2083
V62     V     0.9281   0.1983   0.7083
V63     V     0.0719   0.2702   0.2917
V64     V     0.0719   0.2702   0.7917
V65     V     0.0632   0.4684   0.125
V66     V     0.0632   0.4684   0.625
V67     V     0.1351   0.3965   0.0417
V68     V     0.1351   0.3965   0.5417
V69     V     0.9368   0.4052   0.375
V70     V     0.9368   0.4052   0.875
V71     V     0.8649   0.2614   0.4583
V72     V     0.8649   0.2614   0.9583
loop_
_geom_bond_atom_site_label_1
_geom_bond_atom_site_label_2
_geom_bond_distance
_geom_bond_site_symmetry_2
_ccdc_geom_bond_type
V1     V5    10.0   .     S
V1     V2    10.0   .     S
V1     V2    10.0   1_554     S
V1     V3    9.999   1_545     S
V1     V6    10.0   1_554     S
V1     V59    10.001   .     S
V2     V6    10.0   .     S
V2     V1    10.0   1_556     S
V2     V4    9.999   1_545     S
V2     V5    10.0   .     S
V2     V60    10.001   .     S
V3     V11    10.0   .     S
V3     V4    10.0   1_554     S
V3     V4    10.0   .     S
V3     V1    9.999   1_565     S
V3     V12    10.0   .     S
V3     V27    10.001   .     S
V4     V12    10.0   .     S
V4     V3    10.0   1_556     S
V4     V2    9.999   1_565     S
V4     V11    10.0   1_556     S
V4     V28    10.001   .     S
V5     V6    10.0   1_554     S
V5     V6    10.0   .     S
V5     V7    9.999   .     S
V5     V55    10.001   .     S
V6     V5    10.0   1_556     S
V6     V1    10.0   1_556     S
V6     V8    9.999   .     S
V6     V56    10.001   .     S
V7     V10    10.0   1_545     S
V7     V8    10.0   1_554     S
V7     V8    10.0   .     S
V7     V9    10.0   1_545     S
V7     V45    10.001   .     S
V8     V9    10.0   1_546     S
V8     V7    10.0   1_556     S
V8     V10    10.0   1_545     S
V8     V46    10.001   .     S
V9     V8    10.0   1_564     S
V9     V10    10.0   .     S
V9     V10    10.0   1_554     S
V9     V7    10.0   1_565     S
V9     V11    9.999   .     S
V9     V43    10.001   .     S
V10     V7    10.0   1_565     S
V10     V9    10.0   1_556     S
V10     V8    10.0   1_565     S
V10     V12    9.999   .     S
V10     V44    10.001   .     S
V11     V12    10.0   .     S
V11     V12    10.0   1_554     S
V11     V4    10.0   1_554     S
V11     V33    10.001   .     S
V12     V11    10.0   1_556     S
V12     V34    10.001   .     S
V13     V23    10.0   .     S
V13     V14    10.0   1_554     S
V13     V14    10.0   .     S
V13     V15    9.999   .     S
V13     V24    10.0   .     S
V13     V31    10.001   .     S
V14     V24    10.0   .     S
V14     V13    10.0   1_556     S
V14     V16    9.999   .     S
V14     V23    10.0   1_556     S
V14     V32    10.001   .     S
V15     V20    10.0   .     S
V15     V16    10.0   1_554     S
V15     V16    10.0   .     S
V15     V19    10.0   .     S
V15     V53    10.001   .     S
V16     V19    10.0   1_556     S
V16     V15    10.0   1_556     S
V16     V20    10.0   .     S
V16     V54    10.001   .     S
V17     V21    10.0   .     S
V17     V18    10.0   .     S
V17     V18    10.0   1_554     S
V17     V19    9.999   .     S
V17     V22    10.0   1_554     S
V17     V41    10.001   .     S
V18     V22    10.0   .     S
V18     V17    10.0   1_556     S
V18     V20    9.999   .     S
V18     V21    10.0   .     S
V18     V42    10.001   .     S
V19     V16    10.0   1_554     S
V19     V20    10.0   .     S
V19     V20    10.0   1_554     S
V19     V49    10.001   .     S
V20     V19    10.0   1_556     S
V20     V50    10.001   .     S
V21     V22    10.0   1_554     S
V21     V22    10.0   .     S
V21     V23    9.999   .     S
V21     V39    10.001   .     S
V22     V21    10.0   1_556     S
V22     V17    10.0   1_556     S
V22     V24    9.999   .     S
V22     V40    10.001   .     S
V23     V24    10.0   .     S
V23     V24    10.0   1_554     S
V23     V14    10.0   1_554     S
V23     V25    10.001   .     S
V24     V23    10.0   1_556     S
V24     V26    10.001   .     S
V25     V31    10.0   .     S
V25     V26    10.0   .     S
V25     V26    10.0   1_554     S
V25     V27    9.999   1_655     S
V25     V32    10.0   1_554     S
V26     V32    10.0   .     S
V26     V25    10.0   1_556     S
V26     V28    9.999   1_655     S
V26     V31    10.0   .     S
V27     V33    10.0   .     S
V27     V28    10.0   1_554     S
V27     V28    10.0   .     S
V27     V25    9.999   1_455     S
V27     V34    10.0   .     S
V28     V34    10.0   .     S
V28     V27    10.0   1_556     S
V28     V26    9.999   1_455     S
V28     V33    10.0   1_556     S
V29     V36    10.0   1_655     S
V29     V30    10.0   1_554     S
V29     V30    10.0   .     S
V29     V35    10.0   1_655     S
V29     V31    9.999   .     S
V29     V69    10.001   .     S
V30     V35    10.0   1_656     S
V30     V29    10.0   1_556     S
V30     V36    10.0   1_655     S
V30     V32    9.999   .     S
V30     V70    10.001   .     S
V31     V32    10.0   1_554     S
V31     V32    10.0   .     S
V32     V31    10.0   1_556     S
V32     V25    10.0   1_556     S
V33     V34    10.0   .     S
V33     V34    10.0   1_554     S
V33     V28    10.0   1_554     S
V33     V35    9.999   .     S
V34     V33    10.0   1_556     S
V34     V36    9.999   .     S
V35     V30    10.0   1_454     S
V35     V36    10.0   .     S
V35     V36    10.0   1_554     S
V35     V29    10.0   1_455     S
V35     V65    10.001   .     S
V36     V29    10.0   1_455     S
V36     V35    10.0   1_556     S
V36     V30    10.0   1_455     S
V36     V66    10.001   .     S
V37     V47    10.0   .     S
V37     V38    10.0   .     S
V37     V38    10.0   1_554     S
V37     V39    9.999   1_545     S
V37     V48    10.0   1_554     S
V37     V61    10.001   .     S
V38     V48    10.0   .     S
V38     V37    10.0   1_556     S
V38     V40    9.999   1_545     S
V38     V47    10.0   .     S
V38     V62    10.001   .     S
V39     V41    10.0   .     S
V39     V40    10.0   1_554     S
V39     V40    10.0   .     S
V39     V37    9.999   1_565     S
V39     V42    10.0   .     S
V40     V42    10.0   .     S
V40     V39    10.0   1_556     S
V40     V38    9.999   1_565     S
V40     V41    10.0   1_556     S
V41     V42    10.0   .     S
V41     V42    10.0   1_554     S
V41     V40    10.0   1_554     S
V41     V43    9.999   .     S
V42     V41    10.0   1_556     S
V42     V44    9.999   .     S
V43     V46    10.0   1_564     S
V43     V44    10.0   .     S
V43     V44    10.0   1_554     S
V43     V45    10.0   1_565     S
V44     V45    10.0   1_565     S
V44     V43    10.0   1_556     S
V44     V46    10.0   1_565     S
V45     V44    10.0   1_545     S
V45     V46    10.0   1_554     S
V45     V46    10.0   .     S
V45     V43    10.0   1_545     S
V45     V47    9.999   .     S
V46     V43    10.0   1_546     S
V46     V45    10.0   1_556     S
V46     V44    10.0   1_545     S
V46     V48    9.999   .     S
V47     V48    10.0   1_554     S
V47     V48    10.0   .     S
V47     V71    10.001   .     S
V48     V47    10.0   1_556     S
V48     V37    10.0   1_556     S
V48     V72    10.001   .     S
V49     V54    10.0   1_554     S
V49     V50    10.0   .     S
V49     V50    10.0   1_554     S
V49     V51    9.999   .     S
V49     V53    10.0   .     S
V50     V53    10.0   .     S
V50     V49    10.0   1_556     S
V50     V52    9.999   .     S
V50     V54    10.0   .     S
V51     V57    10.0   .     S
V51     V52    10.0   .     S
V51     V52    10.0   1_554     S
V51     V58    10.0   1_554     S
V51     V67    10.001   .     S
V52     V58    10.0   .     S
V52     V51    10.0   1_556     S
V52     V57    10.0   .     S
V52     V68    10.001   .     S
V53     V54    10.0   1_554     S
V53     V54    10.0   .     S
V53     V55    9.999   .     S
V54     V49    10.0   1_556     S
V54     V53    10.0   1_556     S
V54     V56    9.999   .     S
V55     V59    10.0   .     S
V55     V56    10.0   1_554     S
V55     V56    10.0   .     S
V55     V60    10.0   .     S
V56     V60    10.0   .     S
V56     V55    10.0   1_556     S
V56     V59    10.0   1_556     S
V57     V58    10.0   1_554     S
V57     V58    10.0   .     S
V57     V59    9.999   .     S
V57     V63    10.001   .     S
V58     V57    10.0   1_556     S
V58     V51    10.0   1_556     S
V58     V60    9.999   .     S
V58     V64    10.001   .     S
V59     V60    10.0   .     S
V59     V60    10.0   1_554     S
V59     V56    10.0   1_554     S
V60     V59    10.0   1_556     S
V61     V71    10.0   .     S
V61     V62    10.0   .     S
V61     V62    10.0   1_554     S
V61     V63    9.999   1_655     S
V61     V72    10.0   1_554     S
V62     V72    10.0   .     S
V62     V61    10.0   1_556     S
V62     V64    9.999   1_655     S
V62     V71    10.0   .     S
V63     V67    10.0   .     S
V63     V64    10.0   1_554     S
V63     V64    10.0   .     S
V63     V61    9.999   1_455     S
V63     V68    10.0   .     S
V64     V68    10.0   .     S
V64     V63    10.0   1_556     S
V64     V62    9.999   1_455     S
V64     V67    10.0   1_556     S
V65     V70    10.0   1_454     S
V65     V66    10.0   .     S
V65     V66    10.0   1_554     S
V65     V69    10.0   1_455     S
V65     V67    9.999   .     S
V66     V69    10.0   1_455     S
V66     V65    10.0   1_556     S
V66     V70    10.0   1_455     S
V66     V68    9.999   .     S
V67     V68    10.0   .     S
V67     V68    10.0   1_554     S
V67     V64    10.0   1_554     S
V68     V67    10.0   1_556     S
V69     V66    10.0   1_655     S
V69     V70    10.0   1_554     S
V69     V70    10.0   .     S
V69     V65    10.0   1_655     S
V69     V71    9.999   .     S
V70     V65    10.0   1_656     S
V70     V69    10.0   1_556     S
V70     V66    10.0   1_655     S
V70     V72    9.999   .     S
V71     V72    10.0   1_554     S
V71     V72    10.0   .     S
V72     V71    10.0   1_556     S
V72     V61    10.0   1_556     S
