data_wmu
_audit_creation_date              2020-02-02
_audit_creation_method            'Pymatgen'
_symmetry_space_group_name_H-M    'P1'
_symmetry_Int_Tables_number       1
loop_
_symmetry_equiv_pos_as_xyz
  x,y,z
_cell_length_a                    49.2404
_cell_length_b                    49.2404
_cell_length_c                    18.2751
_cell_angle_alpha                 90.0
_cell_angle_beta                 90.0
_cell_angle_gamma                 120.0
loop_
_atom_site_label
_atom_site_type_symbol
_atom_site_fract_x
_atom_site_fract_y
_atom_site_fract_z
V1     V     0.2276   0.0726   0.5351
V2     V     0.1551   0.9274   0.9649
V3     V     0.4059   0.8943   0.6316
V4     V     0.2608   0.8217   0.2018
V5     V     0.5116   0.1057   0.8684
V6     V     0.439   0.1783   0.2982
V7     V     0.439   0.2608   0.7982
V8     V     0.5116   0.4059   0.3684
V9     V     0.4059   0.5116   0.1316
V10     V     0.2608   0.439   0.7018
V11     V     0.1551   0.2276   0.4649
V12     V     0.2276   0.1551   0.0351
V13     V     0.8217   0.2608   0.2982
V14     V     0.8943   0.4059   0.8684
V15     V     0.9274   0.1551   0.5351
V16     V     0.0726   0.2276   0.9649
V17     V     0.1057   0.5116   0.6316
V18     V     0.1783   0.439   0.2018
V19     V     0.8943   0.4884   0.3684
V20     V     0.8217   0.561   0.7982
V21     V     0.9274   0.7724   0.0351
V22     V     0.0726   0.8449   0.4649
V23     V     0.1057   0.5941   0.1316
V24     V     0.1783   0.7392   0.7018
V25     V     0.8449   0.0726   0.0351
V26     V     0.7724   0.9274   0.4649
V27     V     0.4884   0.8943   0.1316
V28     V     0.561   0.8217   0.7018
V29     V     0.5941   0.1057   0.3684
V30     V     0.7392   0.1783   0.7982
V31     V     0.8449   0.7724   0.5351
V32     V     0.7724   0.8449   0.9649
V33     V     0.4884   0.5941   0.6316
V34     V     0.561   0.7392   0.2018
V35     V     0.7392   0.561   0.2982
V36     V     0.5941   0.4884   0.8684
loop_
_geom_bond_atom_site_label_1
_geom_bond_atom_site_label_2
_geom_bond_distance
_geom_bond_site_symmetry_2
_ccdc_geom_bond_type
V1     V22    10.0   1_545     S
V1     V2    10.0   1_545     S
V1     V12    10.0   .     S
V1     V6    10.0   .     S
V1     V11    10.0   .     S
V1     V12    10.0   1_556     S
V2     V12    10.0   1_566     S
V2     V22    10.0   1_556     S
V2     V1    10.0   1_565     S
V2     V4    10.0   1_556     S
V2     V21    10.0   1_456     S
V2     V22    10.0   .     S
V3     V24    10.0   .     S
V3     V4    10.0   .     S
V3     V27    10.0   1_556     S
V3     V5    10.0   1_565     S
V3     V27    10.0   .     S
V3     V28    10.0   .     S
V4     V2    10.0   1_554     S
V4     V27    10.0   .     S
V4     V24    10.0   1_554     S
V4     V23    10.0   .     S
V4     V24    10.0   .     S
V5     V3    10.0   1_545     S
V5     V7    10.0   .     S
V5     V6    10.0   1_556     S
V5     V29    10.0   .     S
V5     V29    10.0   1_556     S
V5     V30    10.0   .     S
V6     V29    10.0   .     S
V6     V5    10.0   1_554     S
V6     V7    10.0   .     S
V6     V8    10.0   .     S
V6     V7    10.0   1_554     S
V7     V12    10.0   1_556     S
V7     V36    10.0   .     S
V7     V8    10.0   .     S
V7     V6    10.0   1_556     S
V8     V36    10.0   1_554     S
V8     V9    10.0   .     S
V8     V35    10.0   .     S
V8     V36    10.0   .     S
V9     V18    10.0   .     S
V9     V33    10.0   .     S
V9     V10    10.0   1_554     S
V9     V34    10.0   .     S
V9     V33    10.0   1_554     S
V10     V33    10.0   .     S
V10     V9    10.0   1_556     S
V10     V18    10.0   .     S
V10     V11    10.0   .     S
V10     V17    10.0   .     S
V10     V18    10.0   1_556     S
V11     V12    10.0   .     S
V11     V16    10.0   .     S
V11     V15    10.0   1_455     S
V11     V16    10.0   1_554     S
V12     V2    10.0   1_544     S
V12     V7    10.0   1_554     S
V12     V16    10.0   1_554     S
V12     V1    10.0   1_554     S
V13     V19    10.0   .     S
V13     V30    10.0   .     S
V13     V14    10.0   1_554     S
V13     V15    10.0   .     S
V13     V29    10.0   .     S
V13     V30    10.0   1_554     S
V14     V17    10.0   1_655     S
V14     V30    10.0   .     S
V14     V13    10.0   1_556     S
V14     V19    10.0   .     S
V14     V19    10.0   1_556     S
V14     V20    10.0   .     S
V15     V11    10.0   1_655     S
V15     V16    10.0   1_655     S
V15     V25    10.0   .     S
V15     V25    10.0   1_556     S
V15     V26    10.0   1_545     S
V16     V12    10.0   1_556     S
V16     V25    10.0   1_456     S
V16     V15    10.0   1_455     S
V16     V11    10.0   1_556     S
V16     V18    10.0   1_556     S
V17     V14    10.0   1_455     S
V17     V18    10.0   .     S
V17     V23    10.0   1_556     S
V17     V23    10.0   .     S
V17     V24    10.0   .     S
V18     V16    10.0   1_554     S
V18     V23    10.0   .     S
V18     V10    10.0   1_554     S
V19     V35    10.0   .     S
V19     V14    10.0   1_554     S
V19     V20    10.0   .     S
V19     V23    10.0   1_655     S
V20     V21    10.0   1_556     S
V20     V35    10.0   1_556     S
V20     V35    10.0   .     S
V20     V36    10.0   .     S
V21     V20    10.0   1_554     S
V21     V2    10.0   1_654     S
V21     V31    10.0   1_554     S
V21     V22    10.0   1_655     S
V21     V32    10.0   1_554     S
V21     V31    10.0   .     S
V22     V1    10.0   1_565     S
V22     V2    10.0   1_554     S
V22     V24    10.0   .     S
V22     V31    10.0   1_455     S
V22     V21    10.0   1_455     S
V23     V17    10.0   1_554     S
V23     V19    10.0   1_455     S
V23     V24    10.0   1_554     S
V24     V4    10.0   1_556     S
V24     V23    10.0   1_556     S
V25     V16    10.0   1_654     S
V25     V32    10.0   1_544     S
V25     V15    10.0   1_554     S
V25     V26    10.0   1_545     S
V25     V30    10.0   1_554     S
V26     V28    10.0   .     S
V26     V15    10.0   1_565     S
V26     V32    10.0   .     S
V26     V25    10.0   1_565     S
V26     V31    10.0   .     S
V26     V32    10.0   1_554     S
V27     V3    10.0   1_554     S
V27     V34    10.0   .     S
V27     V28    10.0   1_554     S
V27     V29    10.0   1_565     S
V28     V27    10.0   1_556     S
V28     V34    10.0   .     S
V28     V33    10.0   .     S
V28     V34    10.0   1_556     S
V29     V27    10.0   1_545     S
V29     V5    10.0   1_554     S
V29     V30    10.0   .     S
V30     V25    10.0   1_556     S
V30     V13    10.0   1_556     S
V31     V21    10.0   1_556     S
V31     V22    10.0   1_655     S
V31     V32    10.0   .     S
V31     V35    10.0   .     S
V32     V25    10.0   1_566     S
V32     V34    10.0   1_556     S
V32     V21    10.0   1_556     S
V32     V26    10.0   1_556     S
V33     V34    10.0   .     S
V33     V9    10.0   1_556     S
V33     V36    10.0   .     S
V34     V32    10.0   1_554     S
V34     V28    10.0   1_554     S
V35     V20    10.0   1_554     S
V35     V36    10.0   1_554     S
V36     V8    10.0   1_556     S
V36     V35    10.0   1_556     S
