data_wmw
_audit_creation_date              2020-02-02
_audit_creation_method            'Pymatgen'
_symmetry_space_group_name_H-M    'P1'
_symmetry_Int_Tables_number       1
loop_
_symmetry_equiv_pos_as_xyz
  x,y,z
_cell_length_a                    48.4235
_cell_length_b                    48.4235
_cell_length_c                    19.7347
_cell_angle_alpha                 90.0
_cell_angle_beta                 90.0
_cell_angle_gamma                 120.0
loop_
_atom_site_label
_atom_site_type_symbol
_atom_site_fract_x
_atom_site_fract_y
_atom_site_fract_z
V1     V     0.8728   0.7791   0.5933
V2     V     0.1272   0.9063   0.9067
V3     V     0.7939   0.5542   0.7401
V4     V     0.5395   0.427   0.4266
V5     V     0.7939   0.2397   0.2401
V6     V     0.5395   0.1125   0.9266
V7     V     0.4605   0.8875   0.0734
V8     V     0.2061   0.7603   0.7599
V9     V     0.8728   0.0937   0.0933
V10     V     0.1272   0.2209   0.4067
V11     V     0.4605   0.573   0.5734
V12     V     0.2061   0.4458   0.2599
V13     V     0.7603   0.5542   0.2401
V14     V     0.8875   0.427   0.9266
V15     V     0.7791   0.9063   0.4067
V16     V     0.9063   0.7791   0.0933
V17     V     0.573   0.1125   0.4266
V18     V     0.4458   0.2397   0.7401
V19     V     0.427   0.8875   0.5734
V20     V     0.5542   0.7603   0.2599
V21     V     0.2397   0.4458   0.7599
V22     V     0.1125   0.573   0.0734
V23     V     0.2209   0.0937   0.5933
V24     V     0.0937   0.2209   0.9067
V25     V     0.8875   0.4605   0.4266
V26     V     0.7603   0.2061   0.7401
V27     V     0.9063   0.1272   0.5933
V28     V     0.7791   0.8728   0.9067
V29     V     0.5542   0.7939   0.7599
V30     V     0.427   0.5395   0.0734
V31     V     0.573   0.4605   0.9266
V32     V     0.4458   0.2061   0.2401
V33     V     0.2397   0.7939   0.2599
V34     V     0.1125   0.5395   0.5734
V35     V     0.2209   0.1272   0.0933
V36     V     0.0937   0.8728   0.4067
loop_
_geom_bond_atom_site_label_1
_geom_bond_atom_site_label_2
_geom_bond_distance
_geom_bond_site_symmetry_2
_ccdc_geom_bond_type
V1     V36    10.0   1_655     S
V1     V16    10.0   .     S
V1     V3    10.0   .     S
V1     V15    10.0   .     S
V1     V28    10.0   .     S
V1     V16    10.0   1_556     S
V2     V8    10.0   .     S
V2     V16    10.0   1_456     S
V2     V36    10.0   1_556     S
V2     V35    10.0   1_566     S
V2     V23    10.0   1_565     S
V2     V36    10.0   .     S
V3     V31    10.0   .     S
V3     V13    10.0   1_556     S
V3     V14    10.0   .     S
V3     V25    10.0   .     S
V3     V13    10.0   .     S
V4     V31    10.0   1_554     S
V4     V13    10.0   .     S
V4     V11    10.0   .     S
V4     V32    10.0   .     S
V4     V18    10.0   .     S
V4     V31    10.0   .     S
V5     V17    10.0   .     S
V5     V26    10.0   .     S
V5     V9    10.0   .     S
V5     V25    10.0   .     S
V5     V14    10.0   1_554     S
V5     V26    10.0   1_554     S
V6     V26    10.0   .     S
V6     V17    10.0   .     S
V6     V7    10.0   1_546     S
V6     V18    10.0   .     S
V6     V32    10.0   1_556     S
V6     V17    10.0   1_556     S
V7     V6    10.0   1_564     S
V7     V33    10.0   .     S
V7     V19    10.0   .     S
V7     V20    10.0   .     S
V7     V29    10.0   1_554     S
V7     V19    10.0   1_554     S
V8     V19    10.0   .     S
V8     V33    10.0   .     S
V8     V34    10.0   .     S
V8     V22    10.0   1_556     S
V8     V33    10.0   1_556     S
V9     V24    10.0   1_654     S
V9     V27    10.0   1_554     S
V9     V28    10.0   1_544     S
V9     V15    10.0   1_545     S
V9     V27    10.0   .     S
V10     V27    10.0   1_455     S
V10     V24    10.0   .     S
V10     V12    10.0   .     S
V10     V23    10.0   .     S
V10     V35    10.0   .     S
V10     V24    10.0   1_554     S
V11     V21    10.0   .     S
V11     V30    10.0   1_556     S
V11     V29    10.0   .     S
V11     V20    10.0   .     S
V11     V30    10.0   .     S
V12     V30    10.0   .     S
V12     V21    10.0   1_554     S
V12     V34    10.0   .     S
V12     V21    10.0   .     S
V12     V22    10.0   .     S
V13     V31    10.0   1_554     S
V13     V3    10.0   1_554     S
V13     V16    10.0   .     S
V13     V25    10.0   .     S
V14     V25    10.0   .     S
V14     V22    10.0   1_656     S
V14     V26    10.0   .     S
V14     V5    10.0   1_556     S
V14     V25    10.0   1_556     S
V15     V28    10.0   .     S
V15     V20    10.0   .     S
V15     V27    10.0   1_565     S
V15     V9    10.0   1_565     S
V15     V28    10.0   1_554     S
V16     V2    10.0   1_654     S
V16     V36    10.0   1_655     S
V16     V28    10.0   1_554     S
V16     V1    10.0   1_554     S
V17     V26    10.0   .     S
V17     V32    10.0   .     S
V17     V6    10.0   1_554     S
V17     V19    10.0   1_545     S
V18     V32    10.0   1_556     S
V18     V23    10.0   .     S
V18     V31    10.0   .     S
V18     V32    10.0   .     S
V19     V33    10.0   .     S
V19     V17    10.0   1_565     S
V19     V29    10.0   .     S
V19     V7    10.0   1_556     S
V20     V29    10.0   1_554     S
V20     V30    10.0   .     S
V20     V29    10.0   .     S
V21     V30    10.0   1_556     S
V21     V12    10.0   1_556     S
V21     V24    10.0   .     S
V21     V34    10.0   .     S
V22     V14    10.0   1_454     S
V22     V34    10.0   .     S
V22     V33    10.0   .     S
V22     V8    10.0   1_554     S
V22     V34    10.0   1_554     S
V23     V35    10.0   .     S
V23     V36    10.0   1_545     S
V23     V2    10.0   1_545     S
V23     V35    10.0   1_556     S
V24     V9    10.0   1_456     S
V24     V27    10.0   1_455     S
V24     V10    10.0   1_556     S
V24     V35    10.0   1_556     S
V25     V14    10.0   1_554     S
V25     V34    10.0   1_655     S
V26     V27    10.0   .     S
V26     V5    10.0   1_556     S
V27     V10    10.0   1_655     S
V27     V24    10.0   1_655     S
V27     V9    10.0   1_556     S
V27     V15    10.0   1_545     S
V28     V16    10.0   1_556     S
V28     V9    10.0   1_566     S
V28     V15    10.0   1_556     S
V28     V29    10.0   .     S
V29     V7    10.0   1_556     S
V29     V20    10.0   1_556     S
V30     V21    10.0   1_554     S
V30     V11    10.0   1_554     S
V30     V31    10.0   1_554     S
V31     V13    10.0   1_556     S
V31     V4    10.0   1_556     S
V31     V30    10.0   1_556     S
V32     V6    10.0   1_554     S
V32     V18    10.0   1_554     S
V32     V35    10.0   .     S
V33     V36    10.0   .     S
V33     V8    10.0   1_554     S
V34     V25    10.0   1_455     S
V34     V22    10.0   1_556     S
V35     V24    10.0   1_554     S
V35     V2    10.0   1_544     S
V35     V23    10.0   1_554     S
V36     V1    10.0   1_455     S
V36     V16    10.0   1_455     S
V36     V2    10.0   1_554     S
V36     V23    10.0   1_565     S
