data_wmz
_audit_creation_date              2020-02-02
_audit_creation_method            'Pymatgen'
_symmetry_space_group_name_H-M    'P1'
_symmetry_Int_Tables_number       1
loop_
_symmetry_equiv_pos_as_xyz
  x,y,z
_cell_length_a                    30.8328
_cell_length_b                    30.8328
_cell_length_c                    45.919
_cell_angle_alpha                 90.0
_cell_angle_beta                 90.0
_cell_angle_gamma                 120.0
loop_
_atom_site_label
_atom_site_type_symbol
_atom_site_fract_x
_atom_site_fract_y
_atom_site_fract_z
V1     V     0.4797   0.602   0.5778
V2     V     0.8537   0.789   0.5889
V3     V     0.813   0.5444   0.7444
V4     V     0.187   0.7314   0.7556
V5     V     0.1463   0.9353   0.9111
V6     V     0.5203   0.1223   0.9222
V7     V     0.1463   0.211   0.4111
V8     V     0.5203   0.398   0.4222
V9     V     0.813   0.2686   0.2444
V10     V     0.187   0.4556   0.2556
V11     V     0.8537   0.0647   0.0889
V12     V     0.4797   0.8777   0.0778
V13     V     0.602   0.1223   0.4222
V14     V     0.789   0.9353   0.4111
V15     V     0.1223   0.602   0.0778
V16     V     0.9353   0.789   0.0889
V17     V     0.7314   0.5444   0.2444
V18     V     0.5444   0.7314   0.2556
V19     V     0.0647   0.211   0.9111
V20     V     0.8777   0.398   0.9222
V21     V     0.2686   0.4556   0.7556
V22     V     0.4556   0.2686   0.7444
V23     V     0.211   0.0647   0.5889
V24     V     0.398   0.8777   0.5778
V25     V     0.5444   0.813   0.7556
V26     V     0.7314   0.187   0.7444
V27     V     0.1223   0.5203   0.5778
V28     V     0.9353   0.1463   0.5889
V29     V     0.602   0.4797   0.9222
V30     V     0.789   0.8537   0.9111
V31     V     0.398   0.5203   0.0778
V32     V     0.211   0.1463   0.0889
V33     V     0.8777   0.4797   0.4222
V34     V     0.0647   0.8537   0.4111
V35     V     0.2686   0.813   0.2556
V36     V     0.4556   0.187   0.2444
loop_
_geom_bond_atom_site_label_1
_geom_bond_atom_site_label_2
_geom_bond_distance
_geom_bond_site_symmetry_2
_ccdc_geom_bond_type
V1     V25    10.0   .     S
V1     V21    10.0   .     S
V1     V8    10.0   .     S
V1     V2    10.0   .     S
V1     V24    10.0   .     S
V1     V27    10.0   .     S
V2     V14    10.0   .     S
V2     V34    10.0   1_655     S
V2     V28    10.0   1_565     S
V2     V3    10.0   .     S
V2     V23    10.0   1_665     S
V3     V29    10.0   .     S
V3     V20    10.0   .     S
V3     V4    10.0   1_655     S
V3     V26    10.0   .     S
V3     V22    10.0   .     S
V4     V27    10.0   .     S
V4     V24    10.0   .     S
V4     V3    10.0   1_455     S
V4     V21    10.0   .     S
V4     V5    10.0   .     S
V4     V25    10.0   .     S
V5     V16    10.0   1_456     S
V5     V32    10.0   1_566     S
V5     V6    10.0   1_565     S
V5     V19    10.0   1_565     S
V5     V30    10.0   1_455     S
V6     V22    10.0   .     S
V6     V26    10.0   .     S
V6     V5    10.0   1_545     S
V6     V29    10.0   .     S
V6     V12    10.0   1_546     S
V6     V20    10.0   .     S
V7     V28    10.0   1_455     S
V7     V23    10.0   .     S
V7     V8    10.0   .     S
V7     V34    10.0   1_545     S
V7     V10    10.0   .     S
V7     V14    10.0   1_445     S
V8     V36    10.0   .     S
V8     V17    10.0   .     S
V8     V13    10.0   .     S
V8     V33    10.0   .     S
V9     V33    10.0   .     S
V9     V13    10.0   .     S
V9     V10    10.0   1_655     S
V9     V17    10.0   .     S
V9     V11    10.0   .     S
V9     V36    10.0   .     S
V10     V15    10.0   .     S
V10     V31    10.0   .     S
V10     V9    10.0   1_455     S
V10     V35    10.0   .     S
V10     V18    10.0   .     S
V11     V30    10.0   1_544     S
V11     V19    10.0   1_654     S
V11     V12    10.0   1_545     S
V11     V16    10.0   1_545     S
V11     V32    10.0   1_655     S
V12     V35    10.0   .     S
V12     V18    10.0   .     S
V12     V6    10.0   1_564     S
V12     V11    10.0   1_565     S
V12     V31    10.0   .     S
V12     V15    10.0   .     S
V13     V36    10.0   .     S
V13     V14    10.0   1_545     S
V13     V33    10.0   .     S
V13     V24    10.0   1_545     S
V14     V28    10.0   1_565     S
V14     V13    10.0   1_565     S
V14     V7    10.0   1_665     S
V14     V18    10.0   .     S
V14     V34    10.0   1_655     S
V15     V35    10.0   .     S
V15     V20    10.0   1_454     S
V15     V16    10.0   1_455     S
V15     V31    10.0   .     S
V16     V30    10.0   1_554     S
V16     V5    10.0   1_654     S
V16     V11    10.0   1_565     S
V16     V15    10.0   1_655     S
V16     V32    10.0   1_665     S
V16     V17    10.0   .     S
V17     V33    10.0   .     S
V17     V18    10.0   .     S
V17     V36    10.0   .     S
V18     V31    10.0   .     S
V18     V35    10.0   .     S
V19     V32    10.0   1_556     S
V19     V11    10.0   1_456     S
V19     V5    10.0   1_545     S
V19     V20    10.0   1_455     S
V19     V30    10.0   1_445     S
V19     V21    10.0   .     S
V20     V26    10.0   .     S
V20     V15    10.0   1_656     S
V20     V19    10.0   1_655     S
V20     V29    10.0   .     S
V21     V27    10.0   .     S
V21     V22    10.0   .     S
V21     V25    10.0   .     S
V22     V29    10.0   .     S
V22     V23    10.0   .     S
V22     V26    10.0   .     S
V23     V34    10.0   1_545     S
V23     V24    10.0   1_545     S
V23     V2    10.0   1_445     S
V23     V28    10.0   1_455     S
V24     V25    10.0   .     S
V24     V13    10.0   1_565     S
V24     V23    10.0   1_565     S
V24     V27    10.0   .     S
V25     V26    10.0   1_565     S
V25     V30    10.0   .     S
V26     V25    10.0   1_545     S
V26     V28    10.0   .     S
V27     V28    10.0   1_455     S
V27     V33    10.0   1_455     S
V28     V14    10.0   1_545     S
V28     V7    10.0   1_655     S
V28     V2    10.0   1_545     S
V28     V27    10.0   1_655     S
V28     V23    10.0   1_655     S
V29     V31    10.0   1_556     S
V29     V30    10.0   .     S
V30     V16    10.0   1_556     S
V30     V11    10.0   1_566     S
V30     V19    10.0   1_665     S
V30     V5    10.0   1_655     S
V31     V29    10.0   1_554     S
V31     V32    10.0   .     S
V32     V5    10.0   1_544     S
V32     V19    10.0   1_554     S
V32     V16    10.0   1_445     S
V32     V11    10.0   1_455     S
V32     V36    10.0   .     S
V33     V27    10.0   1_655     S
V33     V34    10.0   1_655     S
V34     V2    10.0   1_455     S
V34     V23    10.0   1_565     S
V34     V7    10.0   1_565     S
V34     V33    10.0   1_455     S
V34     V14    10.0   1_455     S
V34     V35    10.0   .     S
V35     V36    10.0   1_565     S
V36     V35    10.0   1_545     S
