data_wnb
_audit_creation_date              2020-02-02
_audit_creation_method            'Pymatgen'
_symmetry_space_group_name_H-M    'P1'
_symmetry_Int_Tables_number       1
loop_
_symmetry_equiv_pos_as_xyz
  x,y,z
_cell_length_a                    24.6742
_cell_length_b                    24.6742
_cell_length_c                    84.1952
_cell_angle_alpha                 90.0
_cell_angle_beta                 90.0
_cell_angle_gamma                 120.0
loop_
_atom_site_label
_atom_site_type_symbol
_atom_site_fract_x
_atom_site_fract_y
_atom_site_fract_z
V1     V     0.711   0.1247   0.525
V2     V     0.289   0.8753   0.475
V3     V     0.4137   0.289   0.525
V4     V     0.5863   0.711   0.475
V5     V     0.8753   0.5863   0.525
V6     V     0.1247   0.4137   0.475
V7     V     0.3777   0.9197   0.3584
V8     V     0.9556   0.747   0.3083
V9     V     0.0803   0.458   0.3584
V10     V     0.253   0.2086   0.3083
V11     V     0.7914   0.0444   0.3083
V12     V     0.542   0.6223   0.3584
V13     V     0.0444   0.7914   0.1917
V14     V     0.6223   0.542   0.1416
V15     V     0.2086   0.253   0.1917
V16     V     0.458   0.0803   0.1416
V17     V     0.9197   0.3777   0.1416
V18     V     0.747   0.9556   0.1917
V19     V     0.1247   0.711   0.975
V20     V     0.8753   0.289   0.025
V21     V     0.289   0.4137   0.975
V22     V     0.711   0.5863   0.025
V23     V     0.5863   0.8753   0.975
V24     V     0.4137   0.1247   0.025
V25     V     0.7914   0.747   0.8083
V26     V     0.542   0.9197   0.8584
V27     V     0.9556   0.2086   0.8083
V28     V     0.3777   0.458   0.8584
V29     V     0.253   0.0444   0.8083
V30     V     0.0803   0.6223   0.8584
V31     V     0.0444   0.253   0.6917
V32     V     0.6223   0.0803   0.6416
V33     V     0.747   0.7914   0.6917
V34     V     0.9197   0.542   0.6416
V35     V     0.458   0.3777   0.6416
V36     V     0.2086   0.9556   0.6917
loop_
_geom_bond_atom_site_label_1
_geom_bond_atom_site_label_2
_geom_bond_distance
_geom_bond_site_symmetry_2
_ccdc_geom_bond_type
V1     V2    10.0   1_545     S
V1     V3    10.0   .     S
V1     V6    10.0   1_655     S
V1     V4    10.0   1_545     S
V1     V5    10.0   .     S
V1     V32    10.0   .     S
V2     V1    10.0   1_565     S
V2     V4    10.0   .     S
V2     V5    10.0   1_455     S
V2     V3    10.0   1_565     S
V2     V6    10.0   .     S
V2     V7    10.0   .     S
V3     V4    10.0   .     S
V3     V5    10.0   .     S
V3     V2    10.0   1_545     S
V3     V6    10.0   .     S
V3     V35    10.0   .     S
V4     V6    10.0   .     S
V4     V1    10.0   1_565     S
V4     V5    10.0   .     S
V4     V12    10.0   .     S
V5     V2    10.0   1_655     S
V5     V6    10.0   1_655     S
V5     V34    10.0   .     S
V6     V1    10.0   1_455     S
V6     V5    10.0   1_455     S
V6     V9    10.0   .     S
V7     V8    10.0   1_455     S
V7     V9    10.0   .     S
V7     V11    10.0   1_565     S
V7     V10    10.0   1_565     S
V7     V12    10.0   .     S
V8     V7    10.0   1_655     S
V8     V10    10.0   1_665     S
V8     V12    10.0   .     S
V8     V9    10.0   1_655     S
V8     V11    10.0   1_565     S
V8     V13    10.0   1_655     S
V9     V10    10.0   .     S
V9     V12    10.0   .     S
V9     V8    10.0   1_455     S
V9     V11    10.0   1_455     S
V10     V8    10.0   1_445     S
V10     V11    10.0   1_455     S
V10     V7    10.0   1_545     S
V10     V12    10.0   .     S
V10     V15    10.0   .     S
V11     V7    10.0   1_545     S
V11     V10    10.0   1_655     S
V11     V12    10.0   1_545     S
V11     V8    10.0   1_545     S
V11     V9    10.0   1_655     S
V11     V18    10.0   1_545     S
V12     V11    10.0   1_565     S
V13     V8    10.0   1_455     S
V13     V14    10.0   1_455     S
V13     V18    10.0   1_455     S
V13     V16    10.0   1_565     S
V13     V15    10.0   1_565     S
V13     V17    10.0   1_455     S
V14     V13    10.0   1_655     S
V14     V17    10.0   .     S
V14     V15    10.0   .     S
V14     V16    10.0   .     S
V14     V18    10.0   .     S
V14     V22    10.0   .     S
V15     V16    10.0   .     S
V15     V13    10.0   1_545     S
V15     V17    10.0   1_455     S
V15     V18    10.0   1_445     S
V16     V13    10.0   1_545     S
V16     V18    10.0   1_545     S
V16     V17    10.0   .     S
V16     V24    10.0   .     S
V17     V15    10.0   1_655     S
V17     V18    10.0   1_545     S
V17     V13    10.0   1_655     S
V17     V20    10.0   .     S
V18     V11    10.0   1_565     S
V18     V13    10.0   1_655     S
V18     V16    10.0   1_565     S
V18     V17    10.0   1_565     S
V18     V15    10.0   1_665     S
V19     V20    10.0   1_456     S
V19     V21    10.0   .     S
V19     V24    10.0   1_566     S
V19     V22    10.0   1_456     S
V19     V23    10.0   .     S
V19     V30    10.0   .     S
V20     V19    10.0   1_654     S
V20     V22    10.0   .     S
V20     V23    10.0   1_544     S
V20     V21    10.0   1_654     S
V20     V24    10.0   .     S
V21     V22    10.0   1_556     S
V21     V23    10.0   .     S
V21     V20    10.0   1_456     S
V21     V24    10.0   1_556     S
V21     V28    10.0   .     S
V22     V21    10.0   1_554     S
V22     V24    10.0   .     S
V22     V19    10.0   1_654     S
V22     V23    10.0   1_554     S
V23     V20    10.0   1_566     S
V23     V24    10.0   1_566     S
V23     V22    10.0   1_556     S
V23     V26    10.0   .     S
V24     V19    10.0   1_544     S
V24     V23    10.0   1_544     S
V24     V21    10.0   1_554     S
V25     V26    10.0   .     S
V25     V27    10.0   1_565     S
V25     V30    10.0   1_655     S
V25     V28    10.0   .     S
V25     V29    10.0   1_665     S
V25     V33    10.0   .     S
V26     V28    10.0   .     S
V26     V29    10.0   1_565     S
V26     V27    10.0   1_565     S
V26     V30    10.0   .     S
V27     V25    10.0   1_545     S
V27     V28    10.0   1_655     S
V27     V29    10.0   1_655     S
V27     V26    10.0   1_545     S
V27     V30    10.0   1_655     S
V27     V31    10.0   1_655     S
V28     V27    10.0   1_455     S
V28     V30    10.0   .     S
V28     V29    10.0   .     S
V29     V26    10.0   1_545     S
V29     V27    10.0   1_455     S
V29     V30    10.0   1_545     S
V29     V25    10.0   1_445     S
V29     V36    10.0   1_545     S
V30     V25    10.0   1_455     S
V30     V29    10.0   1_565     S
V30     V27    10.0   1_455     S
V31     V32    10.0   1_455     S
V31     V33    10.0   1_445     S
V31     V35    10.0   .     S
V31     V34    10.0   1_455     S
V31     V36    10.0   1_545     S
V31     V27    10.0   1_455     S
V32     V31    10.0   1_655     S
V32     V34    10.0   .     S
V32     V36    10.0   1_545     S
V32     V33    10.0   1_545     S
V32     V35    10.0   .     S
V33     V31    10.0   1_665     S
V33     V34    10.0   .     S
V33     V36    10.0   1_655     S
V33     V32    10.0   1_565     S
V33     V35    10.0   .     S
V34     V35    10.0   .     S
V34     V31    10.0   1_655     S
V34     V36    10.0   1_655     S
V35     V36    10.0   1_545     S
V36     V32    10.0   1_565     S
V36     V33    10.0   1_455     S
V36     V35    10.0   1_565     S
V36     V31    10.0   1_565     S
V36     V34    10.0   1_455     S
V36     V29    10.0   1_565     S
