data_wnc
_audit_creation_date              2020-02-02
_audit_creation_method            'Pymatgen'
_symmetry_space_group_name_H-M    'P1'
_symmetry_Int_Tables_number       1
loop_
_symmetry_equiv_pos_as_xyz
  x,y,z
_cell_length_a                    24.3404
_cell_length_b                    24.3404
_cell_length_c                    84.1047
_cell_angle_alpha                 90.0
_cell_angle_beta                 90.0
_cell_angle_gamma                 120.0
loop_
_atom_site_label
_atom_site_type_symbol
_atom_site_fract_x
_atom_site_fract_y
_atom_site_fract_z
V1     V     0.0436   0.256   0.6395
V2     V     0.121   0.4107   0.5271
V3     V     0.2124   0.9564   0.6395
V4     V     0.2897   0.879   0.5271
V5     V     0.744   0.7876   0.6395
V6     V     0.5893   0.7103   0.5271
V7     V     0.4107   0.121   0.9729
V8     V     0.256   0.0436   0.8605
V9     V     0.7876   0.744   0.8605
V10     V     0.7103   0.5893   0.9729
V11     V     0.9564   0.2124   0.8605
V12     V     0.879   0.2897   0.9729
V13     V     0.0774   0.6231   0.8062
V14     V     0.9226   0.5457   0.6938
V15     V     0.3769   0.4543   0.8062
V16     V     0.4543   0.3769   0.6938
V17     V     0.5457   0.9226   0.8062
V18     V     0.6231   0.0774   0.6938
V19     V     0.2124   0.256   0.1395
V20     V     0.2897   0.4107   0.0271
V21     V     0.744   0.9564   0.1395
V22     V     0.5893   0.879   0.0271
V23     V     0.0436   0.7876   0.1395
V24     V     0.121   0.7103   0.0271
V25     V     0.9564   0.744   0.3605
V26     V     0.879   0.5893   0.4729
V27     V     0.7876   0.0436   0.3605
V28     V     0.7103   0.121   0.4729
V29     V     0.4107   0.2897   0.4729
V30     V     0.256   0.2124   0.3605
V31     V     0.5457   0.6231   0.3062
V32     V     0.6231   0.5457   0.1938
V33     V     0.0774   0.4543   0.3062
V34     V     0.9226   0.3769   0.1938
V35     V     0.3769   0.9226   0.3062
V36     V     0.4543   0.0774   0.1938
loop_
_geom_bond_atom_site_label_1
_geom_bond_atom_site_label_2
_geom_bond_distance
_geom_bond_site_symmetry_2
_ccdc_geom_bond_type
V1     V16    10.0   .     S
V1     V2    10.0   .     S
V1     V5    10.0   1_445     S
V1     V3    10.0   1_545     S
V1     V18    10.0   1_455     S
V1     V14    10.0   1_455     S
V2     V29    10.0   .     S
V2     V26    10.0   1_455     S
V2     V28    10.0   1_455     S
V2     V4    10.0   .     S
V2     V6    10.0   .     S
V3     V16    10.0   1_565     S
V3     V18    10.0   1_565     S
V3     V14    10.0   1_455     S
V3     V4    10.0   .     S
V3     V5    10.0   1_455     S
V3     V1    10.0   1_565     S
V4     V26    10.0   1_455     S
V4     V28    10.0   1_565     S
V4     V29    10.0   1_565     S
V4     V6    10.0   .     S
V5     V14    10.0   .     S
V5     V16    10.0   .     S
V5     V6    10.0   .     S
V5     V3    10.0   1_655     S
V5     V1    10.0   1_665     S
V5     V18    10.0   1_565     S
V6     V29    10.0   .     S
V6     V26    10.0   .     S
V6     V28    10.0   1_565     S
V7     V20    10.0   1_556     S
V7     V22    10.0   1_546     S
V7     V24    10.0   1_546     S
V7     V8    10.0   .     S
V7     V10    10.0   .     S
V7     V12    10.0   .     S
V8     V15    10.0   .     S
V8     V9    10.0   1_445     S
V8     V11    10.0   1_455     S
V8     V13    10.0   1_545     S
V8     V17    10.0   1_545     S
V9     V17    10.0   .     S
V9     V15    10.0   .     S
V9     V11    10.0   1_565     S
V9     V8    10.0   1_665     S
V9     V10    10.0   .     S
V9     V13    10.0   1_655     S
V10     V20    10.0   1_556     S
V10     V22    10.0   1_556     S
V10     V12    10.0   .     S
V10     V24    10.0   1_656     S
V11     V15    10.0   1_655     S
V11     V13    10.0   1_655     S
V11     V17    10.0   1_545     S
V11     V9    10.0   1_545     S
V11     V8    10.0   1_655     S
V11     V12    10.0   .     S
V12     V22    10.0   1_546     S
V12     V24    10.0   1_656     S
V12     V20    10.0   1_656     S
V13     V11    10.0   1_455     S
V13     V14    10.0   1_455     S
V13     V17    10.0   .     S
V13     V15    10.0   .     S
V13     V8    10.0   1_565     S
V13     V9    10.0   1_455     S
V14     V3    10.0   1_655     S
V14     V1    10.0   1_655     S
V14     V13    10.0   1_655     S
V14     V16    10.0   .     S
V14     V18    10.0   .     S
V15     V11    10.0   1_455     S
V15     V16    10.0   .     S
V15     V17    10.0   .     S
V16     V3    10.0   1_545     S
V16     V18    10.0   .     S
V17     V11    10.0   1_565     S
V17     V18    10.0   1_565     S
V17     V8    10.0   1_565     S
V18     V3    10.0   1_545     S
V18     V1    10.0   1_655     S
V18     V5    10.0   1_545     S
V18     V17    10.0   1_545     S
V19     V36    10.0   .     S
V19     V32    10.0   .     S
V19     V20    10.0   .     S
V19     V23    10.0   1_545     S
V19     V21    10.0   1_445     S
V19     V34    10.0   1_455     S
V20     V10    10.0   1_554     S
V20     V7    10.0   1_554     S
V20     V12    10.0   1_454     S
V20     V22    10.0   .     S
V20     V24    10.0   .     S
V21     V32    10.0   .     S
V21     V22    10.0   .     S
V21     V19    10.0   1_665     S
V21     V23    10.0   1_655     S
V21     V34    10.0   1_565     S
V21     V36    10.0   1_565     S
V22     V10    10.0   1_554     S
V22     V7    10.0   1_564     S
V22     V12    10.0   1_564     S
V22     V24    10.0   .     S
V23     V32    10.0   1_455     S
V23     V34    10.0   1_455     S
V23     V36    10.0   1_565     S
V23     V24    10.0   .     S
V23     V19    10.0   1_565     S
V23     V21    10.0   1_455     S
V24     V7    10.0   1_564     S
V24     V12    10.0   1_454     S
V24     V10    10.0   1_454     S
V25     V31    10.0   .     S
V25     V26    10.0   .     S
V25     V27    10.0   1_565     S
V25     V30    10.0   1_665     S
V25     V35    10.0   1_655     S
V25     V33    10.0   1_655     S
V26     V2    10.0   1_655     S
V26     V4    10.0   1_655     S
V26     V28    10.0   .     S
V26     V29    10.0   .     S
V27     V31    10.0   1_545     S
V27     V35    10.0   1_545     S
V27     V33    10.0   1_655     S
V27     V28    10.0   .     S
V27     V30    10.0   1_655     S
V27     V25    10.0   1_545     S
V28     V2    10.0   1_655     S
V28     V4    10.0   1_545     S
V28     V6    10.0   1_545     S
V28     V29    10.0   .     S
V29     V4    10.0   1_545     S
V29     V30    10.0   .     S
V30     V33    10.0   .     S
V30     V31    10.0   .     S
V30     V27    10.0   1_455     S
V30     V25    10.0   1_445     S
V30     V35    10.0   1_545     S
V31     V27    10.0   1_565     S
V31     V32    10.0   .     S
V31     V33    10.0   .     S
V31     V35    10.0   .     S
V32     V23    10.0   1_655     S
V32     V34    10.0   .     S
V32     V36    10.0   .     S
V33     V27    10.0   1_455     S
V33     V25    10.0   1_455     S
V33     V34    10.0   1_455     S
V33     V35    10.0   .     S
V34     V23    10.0   1_655     S
V34     V21    10.0   1_545     S
V34     V19    10.0   1_655     S
V34     V33    10.0   1_655     S
V34     V36    10.0   .     S
V35     V27    10.0   1_565     S
V35     V25    10.0   1_455     S
V35     V30    10.0   1_565     S
V35     V36    10.0   1_565     S
V36     V23    10.0   1_545     S
V36     V21    10.0   1_545     S
V36     V35    10.0   1_545     S
