data_wnd
_audit_creation_date              2020-02-02
_audit_creation_method            'Pymatgen'
_symmetry_space_group_name_H-M    'P1'
_symmetry_Int_Tables_number       1
loop_
_symmetry_equiv_pos_as_xyz
  x,y,z
_cell_length_a                    19.8927
_cell_length_b                    19.8927
_cell_length_c                    112.505
_cell_angle_alpha                 90.0
_cell_angle_beta                 90.0
_cell_angle_gamma                 120.0
loop_
_atom_site_label
_atom_site_type_symbol
_atom_site_fract_x
_atom_site_fract_y
_atom_site_fract_z
V1     V     0.8033   0.1366   0.6225
V2     V     0.8634   0.1967   0.7108
V3     V     0.8634   0.6667   0.6225
V4     V     0.8033   0.6667   0.7108
V5     V     0.3333   0.1967   0.6225
V6     V     0.3333   0.1366   0.7108
V7     V     0.1967   0.3333   0.8775
V8     V     0.1366   0.3333   0.7892
V9     V     0.6667   0.8634   0.8775
V10     V     0.6667   0.8033   0.7892
V11     V     0.1366   0.8033   0.8775
V12     V     0.1967   0.8634   0.7892
V13     V     0.47   0.47   0.5441
V14     V     0.53   0.53   0.4559
V15     V     0.53   0.0   0.5441
V16     V     0.47   0.0   0.4559
V17     V     0.0   0.53   0.5441
V18     V     0.0   0.47   0.4559
V19     V     0.1967   0.3333   0.2892
V20     V     0.1366   0.3333   0.3775
V21     V     0.1366   0.8033   0.2892
V22     V     0.1967   0.8634   0.3775
V23     V     0.6667   0.8634   0.2892
V24     V     0.6667   0.8033   0.3775
V25     V     0.8634   0.6667   0.2108
V26     V     0.8033   0.6667   0.1225
V27     V     0.3333   0.1967   0.2108
V28     V     0.3333   0.1366   0.1225
V29     V     0.8033   0.1366   0.2108
V30     V     0.8634   0.1967   0.1225
V31     V     0.53   0.53   0.0441
V32     V     0.47   0.47   0.9559
V33     V     0.0   0.47   0.0441
V34     V     0.0   0.53   0.9559
V35     V     0.47   0.0   0.0441
V36     V     0.53   0.0   0.9559
loop_
_geom_bond_atom_site_label_1
_geom_bond_atom_site_label_2
_geom_bond_distance
_geom_bond_site_symmetry_2
_ccdc_geom_bond_type
V1     V15    10.001   .     S
V1     V2    9.999   .     S
V1     V3    10.0   1_545     S
V1     V5    10.0   1_655     S
V1     V5    10.0   .     S
V1     V3    10.0   .     S
V2     V8    10.001   1_655     S
V2     V6    10.0   .     S
V2     V4    10.0   .     S
V2     V4    10.0   1_545     S
V2     V6    10.0   1_655     S
V3     V17    10.001   1_655     S
V3     V1    10.0   1_565     S
V3     V4    9.999   .     S
V3     V5    10.0   .     S
V3     V5    10.0   1_665     S
V4     V10    10.001   .     S
V4     V2    10.0   1_565     S
V4     V6    10.0   1_665     S
V4     V6    10.0   .     S
V5     V13    10.001   .     S
V5     V1    10.0   1_455     S
V5     V6    9.999   .     S
V5     V3    10.0   1_445     S
V6     V4    10.0   1_445     S
V6     V2    10.0   1_455     S
V6     V12    10.001   1_545     S
V7     V11    10.0   .     S
V7     V9    10.0   .     S
V7     V8    9.999   .     S
V7     V11    10.0   1_545     S
V7     V9    10.0   1_445     S
V7     V32    10.001   .     S
V8     V2    10.001   1_455     S
V8     V10    10.0   1_445     S
V8     V12    10.0   .     S
V8     V10    10.0   .     S
V8     V12    10.0   1_545     S
V9     V10    9.999   .     S
V9     V11    10.0   1_655     S
V9     V7    10.0   1_665     S
V9     V11    10.0   .     S
V9     V36    10.001   1_565     S
V10     V12    10.0   1_655     S
V10     V8    10.0   1_665     S
V10     V12    10.0   .     S
V11     V12    9.999   .     S
V11     V9    10.0   1_455     S
V11     V7    10.0   1_565     S
V11     V34    10.001   .     S
V12     V6    10.001   1_565     S
V12     V10    10.0   1_455     S
V12     V8    10.0   1_565     S
V13     V14    9.999   .     S
V13     V15    10.0   .     S
V13     V17    10.0   1_655     S
V13     V17    10.0   .     S
V13     V15    10.0   1_565     S
V14     V24    10.001   .     S
V14     V16    10.0   1_565     S
V14     V18    10.0   .     S
V14     V18    10.0   1_655     S
V14     V16    10.0   .     S
V15     V17    10.0   1_655     S
V15     V16    9.999   .     S
V15     V17    10.0   1_545     S
V15     V13    10.0   1_545     S
V16     V22    10.001   1_545     S
V16     V14    10.0   1_545     S
V16     V18    10.0   1_655     S
V16     V18    10.0   1_545     S
V17     V3    10.001   1_455     S
V17     V15    10.0   1_455     S
V17     V13    10.0   1_455     S
V17     V15    10.0   1_565     S
V17     V18    9.999   .     S
V18     V16    10.0   1_455     S
V18     V14    10.0   1_455     S
V18     V16    10.0   1_565     S
V18     V20    10.001   .     S
V19     V27    10.001   .     S
V19     V20    9.999   .     S
V19     V21    10.0   .     S
V19     V23    10.0   .     S
V19     V23    10.0   1_445     S
V19     V21    10.0   1_545     S
V20     V22    10.0   .     S
V20     V24    10.0   .     S
V20     V22    10.0   1_545     S
V20     V24    10.0   1_445     S
V21     V25    10.001   1_455     S
V21     V22    9.999   .     S
V21     V23    10.0   1_455     S
V21     V23    10.0   .     S
V21     V19    10.0   1_565     S
V22     V16    10.001   1_565     S
V22     V20    10.0   1_565     S
V22     V24    10.0   .     S
V22     V24    10.0   1_455     S
V23     V21    10.0   1_655     S
V23     V19    10.0   1_665     S
V23     V24    9.999   .     S
V23     V29    10.001   1_565     S
V24     V20    10.0   1_665     S
V24     V22    10.0   1_655     S
V25     V21    10.001   1_655     S
V25     V26    9.999   .     S
V25     V29    10.0   .     S
V25     V27    10.0   .     S
V25     V27    10.0   1_665     S
V25     V29    10.0   1_565     S
V26     V31    10.001   .     S
V26     V28    10.0   .     S
V26     V30    10.0   .     S
V26     V30    10.0   1_565     S
V26     V28    10.0   1_665     S
V27     V29    10.0   1_455     S
V27     V25    10.0   1_445     S
V27     V28    9.999   .     S
V27     V29    10.0   .     S
V28     V35    10.001   .     S
V28     V30    10.0   .     S
V28     V26    10.0   1_445     S
V28     V30    10.0   1_455     S
V29     V23    10.001   1_545     S
V29     V27    10.0   1_655     S
V29     V30    9.999   .     S
V29     V25    10.0   1_545     S
V30     V33    10.001   1_655     S
V30     V26    10.0   1_545     S
V30     V28    10.0   1_655     S
V31     V32    9.999   1_554     S
V31     V35    10.0   1_565     S
V31     V35    10.0   .     S
V31     V33    10.0   .     S
V31     V33    10.0   1_655     S
V32     V31    9.999   1_556     S
V32     V36    10.0   1_565     S
V32     V34    10.0   .     S
V32     V36    10.0   .     S
V32     V34    10.0   1_655     S
V33     V30    10.001   1_455     S
V33     V34    9.999   1_554     S
V33     V35    10.0   1_565     S
V33     V35    10.0   1_455     S
V33     V31    10.0   1_455     S
V34     V33    9.999   1_556     S
V34     V36    10.0   1_565     S
V34     V36    10.0   1_455     S
V34     V32    10.0   1_455     S
V35     V31    10.0   1_545     S
V35     V36    9.999   1_554     S
V35     V33    10.0   1_545     S
V35     V33    10.0   1_655     S
V36     V9    10.001   1_545     S
V36     V32    10.0   1_545     S
V36     V34    10.0   1_545     S
V36     V35    9.999   1_556     S
V36     V34    10.0   1_655     S
