data_wne
_audit_creation_date              2020-02-02
_audit_creation_method            'Pymatgen'
_symmetry_space_group_name_H-M    'P1'
_symmetry_Int_Tables_number       1
loop_
_symmetry_equiv_pos_as_xyz
  x,y,z
_cell_length_a                    41.5828
_cell_length_b                    41.5828
_cell_length_c                    25.622
_cell_angle_alpha                 90.0
_cell_angle_beta                 90.0
_cell_angle_gamma                 120.0
loop_
_atom_site_label
_atom_site_type_symbol
_atom_site_fract_x
_atom_site_fract_y
_atom_site_fract_z
V1     V     0.8615   0.2819   0.2646
V2     V     0.9485   0.1949   0.5688
V3     V     0.913   0.3848   0.9021
V4     V     0.087   0.4718   0.5979
V5     V     0.0515   0.2463   0.9312
V6     V     0.1385   0.4203   0.2354
V7     V     0.1385   0.7181   0.7354
V8     V     0.0515   0.8051   0.4312
V9     V     0.8615   0.5797   0.7646
V10     V     0.9485   0.7537   0.0688
V11     V     0.087   0.6152   0.0979
V12     V     0.913   0.5282   0.4021
V13     V     0.7181   0.5797   0.2646
V14     V     0.8051   0.7537   0.5688
V15     V     0.7537   0.8051   0.9312
V16     V     0.5797   0.7181   0.2354
V17     V     0.5282   0.6152   0.5979
V18     V     0.6152   0.5282   0.9021
V19     V     0.4718   0.3848   0.4021
V20     V     0.3848   0.4718   0.0979
V21     V     0.1949   0.2463   0.4312
V22     V     0.2819   0.4203   0.7354
V23     V     0.2463   0.1949   0.0688
V24     V     0.4203   0.2819   0.7646
V25     V     0.5282   0.913   0.0979
V26     V     0.6152   0.087   0.4021
V27     V     0.8051   0.0515   0.0688
V28     V     0.7181   0.1385   0.7646
V29     V     0.7537   0.9485   0.4312
V30     V     0.5797   0.8615   0.7354
V31     V     0.1949   0.9485   0.9312
V32     V     0.2819   0.8615   0.2354
V33     V     0.3848   0.913   0.5979
V34     V     0.4718   0.087   0.9021
V35     V     0.2463   0.0515   0.5688
V36     V     0.4203   0.1385   0.2646
loop_
_geom_bond_atom_site_label_1
_geom_bond_atom_site_label_2
_geom_bond_distance
_geom_bond_site_symmetry_2
_ccdc_geom_bond_type
V1     V27    10.0   .     S
V1     V6    10.0   1_655     S
V1     V2    10.0   .     S
V1     V12    10.0   .     S
V1     V26    10.0   .     S
V1     V3    10.0   1_554     S
V2     V4    10.0   1_655     S
V2     V28    10.0   .     S
V2     V21    10.0   1_655     S
V2     V29    10.0   1_545     S
V2     V5    10.0   1_655     S
V3     V11    10.0   1_656     S
V3     V4    10.0   1_655     S
V3     V5    10.0   1_655     S
V3     V28    10.0   .     S
V3     V9    10.0   .     S
V3     V1    10.0   1_556     S
V4     V2    10.0   1_455     S
V4     V3    10.0   1_455     S
V4     V12    10.0   1_455     S
V4     V22    10.0   .     S
V4     V7    10.0   .     S
V4     V6    10.0   .     S
V5     V22    10.0   .     S
V5     V3    10.0   1_455     S
V5     V6    10.0   1_556     S
V5     V27    10.0   1_456     S
V5     V23    10.0   1_556     S
V5     V2    10.0   1_455     S
V6     V1    10.0   1_455     S
V6     V5    10.0   1_554     S
V6     V21    10.0   .     S
V6     V11    10.0   .     S
V6     V20    10.0   .     S
V7     V31    10.0   .     S
V7     V8    10.0   .     S
V7     V9    10.0   1_455     S
V7     V33    10.0   .     S
V7     V11    10.0   1_556     S
V8     V12    10.0   1_455     S
V8     V32    10.0   .     S
V8     V14    10.0   1_455     S
V8     V35    10.0   1_565     S
V8     V10    10.0   1_455     S
V9     V7    10.0   1_655     S
V9     V10    10.0   1_556     S
V9     V14    10.0   .     S
V9     V18    10.0   .     S
V9     V12    10.0   .     S
V10     V9    10.0   1_554     S
V10     V11    10.0   1_655     S
V10     V13    10.0   .     S
V10     V31    10.0   1_654     S
V10     V15    10.0   1_554     S
V10     V8    10.0   1_655     S
V11     V3    10.0   1_454     S
V11     V10    10.0   1_455     S
V11     V12    10.0   1_455     S
V11     V32    10.0   .     S
V11     V7    10.0   1_554     S
V12     V4    10.0   1_655     S
V12     V8    10.0   1_655     S
V12     V11    10.0   1_655     S
V12     V13    10.0   .     S
V13     V16    10.0   .     S
V13     V14    10.0   .     S
V13     V19    10.0   .     S
V13     V18    10.0   1_554     S
V14     V17    10.0   .     S
V14     V8    10.0   1_655     S
V14     V29    10.0   .     S
V14     V15    10.0   .     S
V15     V30    10.0   .     S
V15     V16    10.0   1_556     S
V15     V18    10.0   .     S
V15     V27    10.0   1_566     S
V15     V10    10.0   1_556     S
V16     V15    10.0   1_554     S
V16     V29    10.0   .     S
V16     V25    10.0   .     S
V16     V20    10.0   .     S
V16     V17    10.0   .     S
V17     V18    10.0   .     S
V17     V19    10.0   .     S
V17     V30    10.0   .     S
V17     V22    10.0   .     S
V18     V20    10.0   1_556     S
V18     V24    10.0   .     S
V18     V13    10.0   1_556     S
V19     V21    10.0   .     S
V19     V20    10.0   .     S
V19     V36    10.0   .     S
V19     V24    10.0   .     S
V20     V18    10.0   1_554     S
V20     V23    10.0   .     S
V20     V22    10.0   1_554     S
V21     V22    10.0   .     S
V21     V2    10.0   1_455     S
V21     V35    10.0   .     S
V21     V23    10.0   .     S
V22     V24    10.0   .     S
V22     V20    10.0   1_556     S
V23     V36    10.0   .     S
V23     V24    10.0   1_554     S
V23     V31    10.0   1_544     S
V23     V5    10.0   1_554     S
V24     V35    10.0   .     S
V24     V23    10.0   1_556     S
V24     V34    10.0   .     S
V25     V34    10.0   1_564     S
V25     V27    10.0   1_565     S
V25     V26    10.0   1_565     S
V25     V32    10.0   .     S
V25     V30    10.0   1_554     S
V26     V29    10.0   1_545     S
V26     V25    10.0   1_545     S
V26     V33    10.0   1_545     S
V26     V36    10.0   .     S
V26     V28    10.0   .     S
V27     V25    10.0   1_545     S
V27     V28    10.0   1_554     S
V27     V15    10.0   1_544     S
V27     V5    10.0   1_654     S
V27     V29    10.0   1_545     S
V28     V27    10.0   1_556     S
V28     V30    10.0   1_545     S
V28     V34    10.0   .     S
V29     V26    10.0   1_565     S
V29     V30    10.0   .     S
V29     V2    10.0   1_565     S
V29     V27    10.0   1_565     S
V30     V28    10.0   1_565     S
V30     V33    10.0   .     S
V30     V25    10.0   1_556     S
V31     V32    10.0   1_556     S
V31     V34    10.0   1_565     S
V31     V10    10.0   1_456     S
V31     V23    10.0   1_566     S
V31     V35    10.0   1_565     S
V32     V36    10.0   1_565     S
V32     V31    10.0   1_554     S
V32     V33    10.0   .     S
V33     V26    10.0   1_565     S
V33     V34    10.0   1_565     S
V33     V35    10.0   1_565     S
V34     V25    10.0   1_546     S
V34     V31    10.0   1_545     S
V34     V33    10.0   1_545     S
V34     V36    10.0   1_556     S
V35     V33    10.0   1_545     S
V35     V36    10.0   .     S
V35     V8    10.0   1_545     S
V35     V31    10.0   1_545     S
V36     V32    10.0   1_545     S
V36     V34    10.0   1_554     S
