data_wnf
_audit_creation_date              2020-02-02
_audit_creation_method            'Pymatgen'
_symmetry_space_group_name_H-M    'P1'
_symmetry_Int_Tables_number       1
loop_
_symmetry_equiv_pos_as_xyz
  x,y,z
_cell_length_a                    36.6667
_cell_length_b                    36.6667
_cell_length_c                    16.3299
_cell_angle_alpha                 90.0
_cell_angle_beta                 90.0
_cell_angle_gamma                 120.0
loop_
_atom_site_label
_atom_site_type_symbol
_atom_site_fract_x
_atom_site_fract_y
_atom_site_fract_z
V1     V     0.0909   0.9091   0.75
V2     V     0.2424   0.7576   0.9167
V3     V     0.2424   0.4848   0.9167
V4     V     0.0909   0.1818   0.75
V5     V     0.9091   0.0909   0.25
V6     V     0.7576   0.2424   0.0833
V7     V     0.4242   0.8485   0.4167
V8     V     0.5758   0.1515   0.5833
V9     V     0.5758   0.4242   0.5833
V10     V     0.4242   0.5758   0.4167
V11     V     0.8485   0.4242   0.5833
V12     V     0.1515   0.5758   0.4167
V13     V     0.4848   0.2424   0.0833
V14     V     0.1818   0.0909   0.25
V15     V     0.5152   0.7576   0.9167
V16     V     0.8182   0.9091   0.75
V17     V     0.9091   0.8182   0.25
V18     V     0.7576   0.5152   0.0833
loop_
_geom_bond_atom_site_label_1
_geom_bond_atom_site_label_2
_geom_bond_distance
_geom_bond_site_symmetry_2
_ccdc_geom_bond_type
V1     V2    10.0   .     S
V1     V16    10.0   1_455     S
V1     V17    10.0   1_456     S
V1     V17    10.0   1_455     S
V1     V4    10.0   1_565     S
V1     V14    10.0   1_566     S
V1     V14    10.0   1_565     S
V2     V12    10.0   .     S
V2     V7    10.0   .     S
V2     V15    10.0   .     S
V2     V7    10.0   1_556     S
V2     V12    10.0   1_556     S
V2     V3    10.0   .     S
V3     V4    10.0   .     S
V3     V15    10.0   .     S
V3     V10    10.0   .     S
V3     V12    10.0   .     S
V3     V12    10.0   1_556     S
V3     V10    10.0   1_556     S
V4     V16    10.0   1_445     S
V4     V5    10.0   1_456     S
V4     V1    10.0   1_545     S
V4     V14    10.0   1_556     S
V4     V5    10.0   1_455     S
V4     V14    10.0   .     S
V5     V6    10.0   .     S
V5     V4    10.0   1_654     S
V5     V14    10.0   1_655     S
V5     V17    10.0   1_545     S
V5     V16    10.0   1_544     S
V5     V4    10.0   1_655     S
V5     V16    10.0   1_545     S
V6     V13    10.0   .     S
V6     V11    10.0   .     S
V6     V18    10.0   .     S
V6     V11    10.0   1_554     S
V6     V8    10.0   1_554     S
V6     V8    10.0   .     S
V7     V8    10.0   1_565     S
V7     V12    10.0   .     S
V7     V2    10.0   1_554     S
V7     V10    10.0   .     S
V7     V15    10.0   .     S
V7     V15    10.0   1_554     S
V8     V7    10.0   1_545     S
V8     V9    10.0   .     S
V8     V13    10.0   1_556     S
V8     V13    10.0   .     S
V8     V11    10.0   .     S
V8     V6    10.0   1_556     S
V9     V10    10.0   .     S
V9     V11    10.0   .     S
V9     V18    10.0   1_556     S
V9     V13    10.0   1_556     S
V9     V18    10.0   .     S
V9     V13    10.0   .     S
V10     V15    10.0   .     S
V10     V15    10.0   1_554     S
V10     V12    10.0   .     S
V10     V3    10.0   1_554     S
V11     V12    10.0   1_655     S
V11     V18    10.0   1_556     S
V11     V18    10.0   .     S
V11     V6    10.0   1_556     S
V12     V2    10.0   1_554     S
V12     V3    10.0   1_554     S
V12     V11    10.0   1_455     S
V13     V18    10.0   .     S
V13     V9    10.0   1_554     S
V13     V8    10.0   1_554     S
V13     V14    10.0   .     S
V14     V5    10.0   1_455     S
V14     V17    10.0   1_445     S
V14     V1    10.0   1_544     S
V14     V4    10.0   1_554     S
V14     V1    10.0   1_545     S
V15     V10    10.0   1_556     S
V15     V7    10.0   1_556     S
V15     V16    10.0   .     S
V16     V4    10.0   1_665     S
V16     V17    10.0   1_556     S
V16     V17    10.0   .     S
V16     V1    10.0   1_655     S
V16     V5    10.0   1_566     S
V16     V5    10.0   1_565     S
V17     V5    10.0   1_565     S
V17     V16    10.0   1_554     S
V17     V14    10.0   1_665     S
V17     V1    10.0   1_654     S
V17     V1    10.0   1_655     S
V17     V18    10.0   .     S
V18     V9    10.0   1_554     S
V18     V11    10.0   1_554     S
