data_wnj
_audit_creation_date              2020-02-02
_audit_creation_method            'Pymatgen'
_symmetry_space_group_name_H-M    'P1'
_symmetry_Int_Tables_number       1
loop_
_symmetry_equiv_pos_as_xyz
  x,y,z
_cell_length_a                    18.637
_cell_length_b                    18.637
_cell_length_c                    20.0501
_cell_angle_alpha                 90.0
_cell_angle_beta                 90.0
_cell_angle_gamma                 120.0
loop_
_atom_site_label
_atom_site_type_symbol
_atom_site_fract_x
_atom_site_fract_y
_atom_site_fract_z
V1     V     0.0689   0.5088   0.0765
V2     V     0.5088   0.0689   0.9235
V3     V     0.5601   0.4912   0.2569
V4     V     0.4399   0.9311   0.4098
V5     V     0.4912   0.5601   0.7431
V6     V     0.9311   0.4399   0.5902
loop_
_geom_bond_atom_site_label_1
_geom_bond_atom_site_label_2
_geom_bond_distance
_geom_bond_site_symmetry_2
_ccdc_geom_bond_type
V1     V3    10.0   1_455     S
V1     V2    10.0   1_454     S
V1     V4    10.0   .     S
V1     V2    10.0   1_564     S
V1     V3    10.0   .     S
V1     V5    10.0   1_554     S
V1     V6    10.0   1_454     S
V2     V1    10.0   1_656     S
V2     V4    10.0   1_546     S
V2     V5    10.0   1_545     S
V2     V1    10.0   1_546     S
V2     V6    10.0   .     S
V2     V3    10.0   1_556     S
V2     V5    10.0   .     S
V3     V1    10.0   1_655     S
V3     V5    10.0   .     S
V3     V4    10.0   .     S
V3     V2    10.0   1_554     S
V3     V4    10.0   1_545     S
V3     V6    10.0   .     S
V4     V2    10.0   1_564     S
V4     V6    10.0   1_565     S
V4     V3    10.0   1_565     S
V4     V5    10.0   .     S
V4     V6    10.0   1_455     S
V5     V2    10.0   1_565     S
V5     V1    10.0   1_556     S
V5     V6    10.0   .     S
V5     V6    10.0   1_455     S
V6     V4    10.0   1_545     S
V6     V1    10.0   1_656     S
V6     V4    10.0   1_655     S
V6     V5    10.0   1_655     S
