data_wnl
_audit_creation_date              2020-02-02
_audit_creation_method            'Pymatgen'
_symmetry_space_group_name_H-M    'P1'
_symmetry_Int_Tables_number       1
loop_
_symmetry_equiv_pos_as_xyz
  x,y,z
_cell_length_a                    43.3806
_cell_length_b                    43.3806
_cell_length_c                    20.0
_cell_angle_alpha                 90.0
_cell_angle_beta                 90.0
_cell_angle_gamma                 120.0
loop_
_atom_site_label
_atom_site_type_symbol
_atom_site_fract_x
_atom_site_fract_y
_atom_site_fract_z
V1     V     0.8847   0.3426   0.4583
V2     V     0.8847   0.3426   0.9583
V3     V     0.6574   0.1153   0.375
V4     V     0.6574   0.1153   0.875
V5     V     0.1153   0.4578   0.2083
V6     V     0.1153   0.4578   0.7083
V7     V     0.3426   0.4578   0.2917
V8     V     0.3426   0.4578   0.7917
V9     V     0.4578   0.1153   0.125
V10     V     0.4578   0.1153   0.625
V11     V     0.4578   0.3426   0.0417
V12     V     0.4578   0.3426   0.5417
V13     V     0.8847   0.5422   0.2083
V14     V     0.8847   0.5422   0.7083
V15     V     0.6575   0.5422   0.2917
V16     V     0.6575   0.5422   0.7917
V17     V     0.5422   0.8847   0.125
V18     V     0.5422   0.8847   0.625
V19     V     0.5422   0.6574   0.0417
V20     V     0.5422   0.6574   0.5417
V21     V     0.3426   0.8847   0.375
V22     V     0.3426   0.8847   0.875
V23     V     0.1153   0.6574   0.4583
V24     V     0.1153   0.6574   0.9583
loop_
_geom_bond_atom_site_label_1
_geom_bond_atom_site_label_2
_geom_bond_distance
_geom_bond_site_symmetry_2
_ccdc_geom_bond_type
V1     V13    10.0   .     S
V1     V14    10.0   .     S
V1     V3    10.0   .     S
V1     V2    10.0   1_554     S
V1     V2    10.0   .     S
V1     V6    10.0   1_655     S
V1     V5    10.0   1_655     S
V2     V14    10.0   .     S
V2     V13    10.0   1_556     S
V2     V4    10.0   .     S
V2     V1    10.0   1_556     S
V2     V5    10.0   1_656     S
V2     V6    10.0   1_655     S
V3     V10    10.0   .     S
V3     V9    10.0   .     S
V3     V4    10.0   1_554     S
V3     V4    10.0   .     S
V3     V17    10.0   1_545     S
V3     V18    10.0   1_545     S
V4     V9    10.0   1_556     S
V4     V10    10.0   .     S
V4     V3    10.0   1_556     S
V4     V18    10.0   1_545     S
V4     V17    10.0   1_546     S
V5     V23    10.0   .     S
V5     V24    10.0   1_554     S
V5     V2    10.0   1_454     S
V5     V1    10.0   1_455     S
V5     V7    10.0   .     S
V5     V6    10.0   .     S
V5     V6    10.0   1_554     S
V6     V24    10.0   .     S
V6     V23    10.0   .     S
V6     V1    10.0   1_455     S
V6     V2    10.0   1_455     S
V6     V8    10.0   .     S
V6     V5    10.0   1_556     S
V7     V19    10.0   .     S
V7     V20    10.0   .     S
V7     V8    10.0   1_554     S
V7     V8    10.0   .     S
V7     V12    10.0   .     S
V7     V11    10.0   .     S
V8     V20    10.0   .     S
V8     V19    10.0   1_556     S
V8     V7    10.0   1_556     S
V8     V11    10.0   1_556     S
V8     V12    10.0   .     S
V9     V4    10.0   1_554     S
V9     V21    10.0   1_545     S
V9     V22    10.0   1_544     S
V9     V11    10.0   .     S
V9     V10    10.0   .     S
V9     V10    10.0   1_554     S
V10     V22    10.0   1_545     S
V10     V21    10.0   1_545     S
V10     V12    10.0   .     S
V10     V9    10.0   1_556     S
V11     V15    10.0   .     S
V11     V16    10.0   1_554     S
V11     V8    10.0   1_554     S
V11     V12    10.0   .     S
V11     V12    10.0   1_554     S
V12     V16    10.0   .     S
V12     V15    10.0   .     S
V12     V11    10.0   1_556     S
V13     V2    10.0   1_554     S
V13     V15    10.0   .     S
V13     V14    10.0   .     S
V13     V14    10.0   1_554     S
V13     V24    10.0   1_654     S
V13     V23    10.0   1_655     S
V14     V16    10.0   .     S
V14     V13    10.0   1_556     S
V14     V23    10.0   1_655     S
V14     V24    10.0   1_655     S
V15     V16    10.0   1_554     S
V15     V16    10.0   .     S
V15     V20    10.0   .     S
V15     V19    10.0   .     S
V16     V11    10.0   1_556     S
V16     V15    10.0   1_556     S
V16     V19    10.0   1_556     S
V16     V20    10.0   .     S
V17     V22    10.0   1_554     S
V17     V21    10.0   .     S
V17     V3    10.0   1_565     S
V17     V4    10.0   1_564     S
V17     V19    10.0   .     S
V17     V18    10.0   .     S
V17     V18    10.0   1_554     S
V18     V21    10.0   .     S
V18     V22    10.0   .     S
V18     V4    10.0   1_565     S
V18     V3    10.0   1_565     S
V18     V20    10.0   .     S
V18     V17    10.0   1_556     S
V19     V8    10.0   1_554     S
V19     V16    10.0   1_554     S
V19     V20    10.0   .     S
V19     V20    10.0   1_554     S
V20     V19    10.0   1_556     S
V21     V9    10.0   1_565     S
V21     V10    10.0   1_565     S
V21     V23    10.0   .     S
V21     V22    10.0   1_554     S
V21     V22    10.0   .     S
V22     V17    10.0   1_556     S
V22     V10    10.0   1_565     S
V22     V9    10.0   1_566     S
V22     V24    10.0   .     S
V22     V21    10.0   1_556     S
V23     V14    10.0   1_455     S
V23     V13    10.0   1_455     S
V23     V24    10.0   1_554     S
V23     V24    10.0   .     S
V24     V5    10.0   1_556     S
V24     V13    10.0   1_456     S
V24     V14    10.0   1_455     S
V24     V23    10.0   1_556     S
