data_wnn
_audit_creation_date              2020-02-02
_audit_creation_method            'Pymatgen'
_symmetry_space_group_name_H-M    'P1'
_symmetry_Int_Tables_number       1
loop_
_symmetry_equiv_pos_as_xyz
  x,y,z
_cell_length_a                    37.7893
_cell_length_b                    37.7893
_cell_length_c                    13.0925
_cell_angle_alpha                 90.0
_cell_angle_beta                 90.0
_cell_angle_gamma                 120.0
loop_
_atom_site_label
_atom_site_type_symbol
_atom_site_fract_x
_atom_site_fract_y
_atom_site_fract_z
V1     V     0.3634   0.4833   0.9167
V2     V     0.6366   0.5167   0.0833
V3     V     0.4833   0.12   0.0833
V4     V     0.5167   0.88   0.9167
V5     V     0.7866   0.97   0.25
V6     V     0.5467   0.6967   0.4167
V7     V     0.6967   0.15   0.5833
V8     V     0.97   0.1833   0.75
V9     V     0.12   0.6366   0.9167
V10     V     0.88   0.3634   0.0833
V11     V     0.8167   0.7866   0.75
V12     V     0.85   0.5467   0.5833
V13     V     0.03   0.8167   0.25
V14     V     0.3033   0.85   0.4167
V15     V     0.15   0.4533   0.4167
V16     V     0.1833   0.2134   0.25
V17     V     0.4533   0.3033   0.5833
V18     V     0.2134   0.03   0.75
loop_
_geom_bond_atom_site_label_1
_geom_bond_atom_site_label_2
_geom_bond_distance
_geom_bond_site_symmetry_2
_ccdc_geom_bond_type
V1     V2    10.0   1_556     S
V1     V6    10.0   1_556     S
V1     V17    10.0   .     S
V1     V6    10.0   .     S
V1     V15    10.0   1_556     S
V1     V16    10.0   1_556     S
V1     V15    10.0   .     S
V2     V1    10.0   1_554     S
V2     V17    10.0   1_554     S
V2     V6    10.0   .     S
V2     V11    10.0   1_554     S
V2     V12    10.0   1_554     S
V2     V17    10.0   .     S
V2     V12    10.0   .     S
V3     V4    10.0   1_544     S
V3     V7    10.0   1_554     S
V3     V14    10.0   1_545     S
V3     V18    10.0   1_554     S
V3     V17    10.0   1_554     S
V3     V17    10.0   .     S
V3     V7    10.0   .     S
V4     V3    10.0   1_566     S
V4     V7    10.0   1_565     S
V4     V14    10.0   1_556     S
V4     V6    10.0   .     S
V4     V5    10.0   1_556     S
V4     V6    10.0   1_556     S
V4     V14    10.0   .     S
V5     V6    10.0   .     S
V5     V11    10.0   .     S
V5     V4    10.0   1_554     S
V5     V11    10.0   1_554     S
V5     V7    10.0   1_565     S
V5     V8    10.0   1_565     S
V5     V8    10.0   1_564     S
V6     V1    10.0   1_554     S
V6     V11    10.0   .     S
V6     V4    10.0   1_554     S
V7     V3    10.0   1_556     S
V7     V4    10.0   1_545     S
V7     V8    10.0   .     S
V7     V10    10.0   1_556     S
V7     V5    10.0   1_545     S
V7     V10    10.0   .     S
V8     V5    10.0   1_545     S
V8     V10    10.0   1_556     S
V8     V16    10.0   1_655     S
V8     V15    10.0   1_655     S
V8     V16    10.0   1_656     S
V8     V5    10.0   1_546     S
V9     V10    10.0   1_456     S
V9     V15    10.0   1_556     S
V9     V12    10.0   1_455     S
V9     V14    10.0   1_556     S
V9     V13    10.0   1_556     S
V9     V14    10.0   .     S
V9     V15    10.0   .     S
V10     V7    10.0   1_554     S
V10     V8    10.0   1_554     S
V10     V9    10.0   1_654     S
V10     V12    10.0   1_554     S
V10     V15    10.0   1_655     S
V10     V12    10.0   .     S
V11     V5    10.0   1_556     S
V11     V12    10.0   .     S
V11     V2    10.0   1_556     S
V11     V13    10.0   1_655     S
V11     V13    10.0   1_656     S
V12     V10    10.0   1_556     S
V12     V9    10.0   1_655     S
V12     V13    10.0   1_655     S
V12     V2    10.0   1_556     S
V13     V12    10.0   1_455     S
V13     V11    10.0   1_455     S
V13     V14    10.0   .     S
V13     V9    10.0   1_554     S
V13     V18    10.0   1_565     S
V13     V11    10.0   1_454     S
V13     V18    10.0   1_564     S
V14     V3    10.0   1_565     S
V14     V4    10.0   1_554     S
V14     V9    10.0   1_554     S
V14     V18    10.0   1_565     S
V15     V9    10.0   1_554     S
V15     V10    10.0   1_455     S
V15     V16    10.0   .     S
V15     V1    10.0   1_554     S
V15     V8    10.0   1_455     S
V16     V1    10.0   1_554     S
V16     V8    10.0   1_455     S
V16     V18    10.0   .     S
V16     V17    10.0   .     S
V16     V18    10.0   1_554     S
V16     V8    10.0   1_454     S
V17     V2    10.0   1_556     S
V17     V18    10.0   .     S
V17     V3    10.0   1_556     S
V18     V13    10.0   1_545     S
V18     V14    10.0   1_545     S
V18     V3    10.0   1_556     S
V18     V16    10.0   1_556     S
V18     V13    10.0   1_546     S
