data_wnq
_audit_creation_date              2020-02-02
_audit_creation_method            'Pymatgen'
_symmetry_space_group_name_H-M    'P1'
_symmetry_Int_Tables_number       1
loop_
_symmetry_equiv_pos_as_xyz
  x,y,z
_cell_length_a                    27.3771
_cell_length_b                    27.3771
_cell_length_c                    29.1436
_cell_angle_alpha                 90.0
_cell_angle_beta                 90.0
_cell_angle_gamma                 120.0
loop_
_atom_site_label
_atom_site_type_symbol
_atom_site_fract_x
_atom_site_fract_y
_atom_site_fract_z
V1     V     0.3659   0.3083   0.4382
V2     V     0.6341   0.6917   0.5618
V3     V     0.6917   0.0576   0.4382
V4     V     0.3083   0.9424   0.5618
V5     V     0.9424   0.6341   0.4382
V6     V     0.0576   0.3659   0.5618
V7     V     0.6091   0.9674   0.7715
V8     V     0.7243   0.6992   0.8951
V9     V     0.6416   0.6091   0.2285
V10     V     0.025   0.7243   0.1049
V11     V     0.0326   0.6416   0.7715
V12     V     0.3008   0.025   0.8951
V13     V     0.3909   0.0326   0.2285
V14     V     0.2757   0.3008   0.1049
V15     V     0.9674   0.3584   0.2285
V16     V     0.6992   0.975   0.1049
V17     V     0.3584   0.3909   0.7715
V18     V     0.975   0.2757   0.8951
loop_
_geom_bond_atom_site_label_1
_geom_bond_atom_site_label_2
_geom_bond_distance
_geom_bond_site_symmetry_2
_ccdc_geom_bond_type
V1     V2    10.0   .     S
V1     V17    10.0   .     S
V1     V6    10.0   .     S
V1     V4    10.0   1_545     S
V1     V14    10.0   .     S
V1     V9    10.0   .     S
V1     V13    10.0   .     S
V2     V9    10.0   .     S
V2     V5    10.0   .     S
V2     V3    10.0   1_565     S
V2     V8    10.0   .     S
V2     V7    10.0   .     S
V2     V17    10.0   .     S
V3     V4    10.0   1_545     S
V3     V7    10.0   1_545     S
V3     V2    10.0   1_545     S
V3     V6    10.0   1_655     S
V3     V16    10.0   1_545     S
V3     V13    10.0   .     S
V3     V15    10.0   .     S
V4     V3    10.0   1_565     S
V4     V13    10.0   1_565     S
V4     V1    10.0   1_565     S
V4     V5    10.0   1_455     S
V4     V12    10.0   1_565     S
V4     V11    10.0   .     S
V4     V7    10.0   .     S
V5     V11    10.0   1_655     S
V5     V4    10.0   1_655     S
V5     V6    10.0   1_655     S
V5     V10    10.0   1_655     S
V5     V15    10.0   .     S
V5     V9    10.0   .     S
V6     V5    10.0   1_455     S
V6     V15    10.0   1_455     S
V6     V3    10.0   1_455     S
V6     V18    10.0   1_455     S
V6     V17    10.0   .     S
V6     V11    10.0   .     S
V7     V3    10.0   1_565     S
V7     V8    10.0   .     S
V7     V16    10.0   1_556     S
V7     V18    10.0   1_565     S
V7     V12    10.0   1_565     S
V8     V17    10.0   .     S
V8     V9    10.0   1_556     S
V8     V11    10.0   1_655     S
V8     V10    10.0   1_656     S
V8     V16    10.0   1_556     S
V9     V10    10.0   1_655     S
V9     V8    10.0   1_554     S
V9     V16    10.0   .     S
V9     V14    10.0   .     S
V10     V5    10.0   1_455     S
V10     V15    10.0   1_455     S
V10     V9    10.0   1_455     S
V10     V11    10.0   1_554     S
V10     V12    10.0   1_564     S
V10     V8    10.0   1_454     S
V10     V13    10.0   1_565     S
V11     V5    10.0   1_455     S
V11     V12    10.0   1_565     S
V11     V10    10.0   1_556     S
V11     V8    10.0   1_455     S
V11     V18    10.0   1_455     S
V12     V11    10.0   1_545     S
V12     V4    10.0   1_545     S
V12     V7    10.0   1_545     S
V12     V10    10.0   1_546     S
V12     V13    10.0   1_556     S
V12     V17    10.0   .     S
V12     V14    10.0   1_556     S
V13     V4    10.0   1_545     S
V13     V14    10.0   .     S
V13     V12    10.0   1_554     S
V13     V10    10.0   1_545     S
V13     V16    10.0   1_545     S
V14     V15    10.0   1_455     S
V14     V18    10.0   1_454     S
V14     V17    10.0   1_554     S
V14     V12    10.0   1_554     S
V15     V6    10.0   1_655     S
V15     V10    10.0   1_655     S
V15     V16    10.0   1_545     S
V15     V18    10.0   1_554     S
V15     V14    10.0   1_655     S
V16     V7    10.0   1_554     S
V16     V8    10.0   1_554     S
V16     V15    10.0   1_565     S
V16     V3    10.0   1_565     S
V16     V13    10.0   1_565     S
V16     V18    10.0   1_564     S
V17     V18    10.0   1_455     S
V17     V14    10.0   1_556     S
V18     V7    10.0   1_545     S
V18     V15    10.0   1_556     S
V18     V14    10.0   1_656     S
V18     V16    10.0   1_546     S
V18     V6    10.0   1_655     S
V18     V11    10.0   1_655     S
V18     V17    10.0   1_655     S
