data_wnt
_audit_creation_date              2020-02-02
_audit_creation_method            'Pymatgen'
_symmetry_space_group_name_H-M    'P1'
_symmetry_Int_Tables_number       1
loop_
_symmetry_equiv_pos_as_xyz
  x,y,z
_cell_length_a                    19.7936
_cell_length_b                    19.7936
_cell_length_c                    34.4046
_cell_angle_alpha                 90.0
_cell_angle_beta                 90.0
_cell_angle_gamma                 120.0
loop_
_atom_site_label
_atom_site_type_symbol
_atom_site_fract_x
_atom_site_fract_y
_atom_site_fract_z
V1     V     0.6667   0.8751   0.3813
V2     V     0.7915   0.6667   0.6187
V3     V     0.1249   0.7915   0.3813
V4     V     0.8751   0.2085   0.6187
V5     V     0.3333   0.1249   0.6187
V6     V     0.2085   0.3333   0.3813
V7     V     0.2085   0.8751   0.8813
V8     V     0.8751   0.6667   0.1187
V9     V     0.7915   0.1249   0.1187
V10     V     0.6667   0.7915   0.8813
V11     V     0.3333   0.2085   0.1187
V12     V     0.1249   0.3333   0.8813
loop_
_geom_bond_atom_site_label_1
_geom_bond_atom_site_label_2
_geom_bond_distance
_geom_bond_site_symmetry_2
_ccdc_geom_bond_type
V1     V6    10.0   .     S
V1     V3    10.0   .     S
V1     V2    10.0   .     S
V1     V3    10.0   1_655     S
V1     V4    10.0   1_565     S
V1     V6    10.0   1_665     S
V1     V9    10.0   1_565     S
V2     V5    10.0   .     S
V2     V4    10.0   .     S
V2     V4    10.0   1_565     S
V2     V3    10.0   1_655     S
V2     V5    10.0   1_665     S
V2     V10    10.0   .     S
V3     V6    10.0   .     S
V3     V2    10.0   1_455     S
V3     V1    10.0   1_455     S
V3     V5    10.0   1_565     S
V3     V6    10.0   1_565     S
V3     V8    10.0   1_455     S
V4     V5    10.0   .     S
V4     V2    10.0   1_545     S
V4     V1    10.0   1_545     S
V4     V5    10.0   1_655     S
V4     V6    10.0   1_655     S
V4     V12    10.0   1_655     S
V5     V2    10.0   1_445     S
V5     V3    10.0   1_545     S
V5     V6    10.0   .     S
V5     V4    10.0   1_455     S
V5     V7    10.0   1_545     S
V6     V1    10.0   1_445     S
V6     V3    10.0   1_545     S
V6     V4    10.0   1_455     S
V6     V11    10.0   .     S
V7     V10    10.0   .     S
V7     V12    10.0   .     S
V7     V8    10.0   1_456     S
V7     V10    10.0   1_455     S
V7     V12    10.0   1_565     S
V7     V11    10.0   1_566     S
V7     V5    10.0   1_565     S
V8     V11    10.0   .     S
V8     V9    10.0   .     S
V8     V7    10.0   1_654     S
V8     V11    10.0   1_665     S
V8     V10    10.0   1_554     S
V8     V9    10.0   1_565     S
V8     V3    10.0   1_655     S
V9     V11    10.0   .     S
V9     V12    10.0   1_654     S
V9     V10    10.0   1_544     S
V9     V8    10.0   1_545     S
V9     V11    10.0   1_655     S
V9     V1    10.0   1_545     S
V10     V12    10.0   .     S
V10     V7    10.0   1_655     S
V10     V8    10.0   1_556     S
V10     V12    10.0   1_665     S
V10     V9    10.0   1_566     S
V11     V8    10.0   1_445     S
V11     V7    10.0   1_544     S
V11     V12    10.0   1_554     S
V11     V9    10.0   1_455     S
V12     V10    10.0   1_445     S
V12     V9    10.0   1_456     S
V12     V7    10.0   1_545     S
V12     V11    10.0   1_556     S
V12     V4    10.0   1_455     S
