data_wnu
_audit_creation_date              2020-02-02
_audit_creation_method            'Pymatgen'
_symmetry_space_group_name_H-M    'P1'
_symmetry_Int_Tables_number       1
loop_
_symmetry_equiv_pos_as_xyz
  x,y,z
_cell_length_a                    75.137
_cell_length_b                    75.137
_cell_length_c                    20.0
_cell_angle_alpha                 90.0
_cell_angle_beta                 90.0
_cell_angle_gamma                 120.0
loop_
_atom_site_label
_atom_site_type_symbol
_atom_site_fract_x
_atom_site_fract_y
_atom_site_fract_z
V1     V     0.1423   0.3999   0.1667
V2     V     0.1423   0.3999   0.6667
V3     V     0.0758   0.2668   0.4167
V4     V     0.0758   0.2668   0.9167
V5     V     0.2576   0.3999   0.4167
V6     V     0.2576   0.3999   0.9167
V7     V     0.191   0.2668   0.1667
V8     V     0.191   0.2668   0.6667
V9     V     0.8577   0.6001   0.3333
V10     V     0.8577   0.6001   0.8333
V11     V     0.9242   0.7332   0.0833
V12     V     0.9242   0.7332   0.5833
V13     V     0.7424   0.6001   0.0833
V14     V     0.7424   0.6001   0.5833
V15     V     0.809   0.7332   0.3333
V16     V     0.809   0.7332   0.8333
V17     V     0.0665   0.5909   0.0
V18     V     0.0665   0.5909   0.5
V19     V     0.9335   0.5244   0.25
V20     V     0.9335   0.5244   0.75
V21     V     0.0665   0.4756   0.25
V22     V     0.0665   0.4756   0.75
V23     V     0.9335   0.4091   0.5
V24     V     0.9335   0.4091   1.0
V25     V     0.2576   0.8577   0.1667
V26     V     0.2576   0.8577   0.6667
V27     V     0.191   0.9242   0.4167
V28     V     0.191   0.9242   0.9167
V29     V     0.1423   0.7424   0.4167
V30     V     0.1423   0.7424   0.9167
V31     V     0.0758   0.809   0.1667
V32     V     0.0758   0.809   0.6667
V33     V     0.5909   0.5244   0.5
V34     V     0.5909   0.5244   1.0
V35     V     0.5244   0.5909   0.25
V36     V     0.5244   0.5909   0.75
V37     V     0.4756   0.4091   0.25
V38     V     0.4756   0.4091   0.75
V39     V     0.4091   0.4756   0.0
V40     V     0.4091   0.4756   0.5
V41     V     0.6001   0.8577   0.4167
V42     V     0.6001   0.8577   0.9167
V43     V     0.7332   0.9242   0.1667
V44     V     0.7332   0.9242   0.6667
V45     V     0.6001   0.7424   0.1667
V46     V     0.6001   0.7424   0.6667
V47     V     0.7332   0.809   0.4167
V48     V     0.7332   0.809   0.9167
V49     V     0.8577   0.2576   0.0833
V50     V     0.8577   0.2576   0.5833
V51     V     0.9242   0.191   0.3333
V52     V     0.9242   0.191   0.8333
V53     V     0.7424   0.1423   0.3333
V54     V     0.7424   0.1423   0.8333
V55     V     0.809   0.0758   0.0833
V56     V     0.809   0.0758   0.5833
V57     V     0.4756   0.0665   0.5
V58     V     0.4756   0.0665   1.0
V59     V     0.4091   0.9335   0.25
V60     V     0.4091   0.9335   0.75
V61     V     0.5909   0.0665   0.25
V62     V     0.5909   0.0665   0.75
V63     V     0.5244   0.9335   0.0
V64     V     0.5244   0.9335   0.5
V65     V     0.2668   0.191   0.0833
V66     V     0.2668   0.191   0.5833
V67     V     0.3999   0.2576   0.3333
V68     V     0.3999   0.2576   0.8333
V69     V     0.3999   0.1423   0.0833
V70     V     0.3999   0.1423   0.5833
V71     V     0.2668   0.0758   0.3333
V72     V     0.2668   0.0758   0.8333
loop_
_geom_bond_atom_site_label_1
_geom_bond_atom_site_label_2
_geom_bond_distance
_geom_bond_site_symmetry_2
_ccdc_geom_bond_type
V1     V5    9.999   .     S
V1     V2    10.0   .     S
V1     V2    10.0   1_554     S
V1     V4    10.0   1_554     S
V1     V3    10.0   .     S
V1     V6    9.999   1_554     S
V1     V21    10.001   .     S
V2     V6    9.999   .     S
V2     V1    10.0   1_556     S
V2     V3    10.0   .     S
V2     V4    10.0   .     S
V2     V5    9.999   .     S
V2     V22    10.001   .     S
V3     V4    10.0   1_554     S
V3     V4    10.0   .     S
V3     V7    9.999   .     S
V3     V8    9.999   .     S
V3     V51    10.001   1_455     S
V4     V1    10.0   1_556     S
V4     V3    10.0   1_556     S
V4     V8    9.999   .     S
V4     V7    9.999   1_556     S
V4     V52    10.001   1_455     S
V5     V6    10.0   1_554     S
V5     V6    10.0   .     S
V5     V8    10.0   .     S
V5     V7    10.0   .     S
V5     V40    10.001   .     S
V6     V1    9.999   1_556     S
V6     V5    10.0   1_556     S
V6     V7    10.0   1_556     S
V6     V8    10.0   .     S
V6     V39    10.001   1_556     S
V7     V6    10.0   1_554     S
V7     V4    9.999   1_554     S
V7     V8    10.0   .     S
V7     V8    10.0   1_554     S
V7     V65    10.001   .     S
V8     V7    10.0   1_556     S
V8     V66    10.001   .     S
V9     V13    9.999   .     S
V9     V10    10.0   1_554     S
V9     V10    10.0   .     S
V9     V11    10.0   .     S
V9     V12    10.0   .     S
V9     V14    9.999   .     S
V9     V19    10.001   .     S
V10     V14    9.999   .     S
V10     V9    10.0   1_556     S
V10     V12    10.0   .     S
V10     V11    10.0   1_556     S
V10     V13    9.999   1_556     S
V10     V20    10.001   .     S
V11     V10    10.0   1_554     S
V11     V12    10.0   .     S
V11     V12    10.0   1_554     S
V11     V15    9.999   .     S
V11     V16    9.999   1_554     S
V11     V31    10.001   1_655     S
V12     V11    10.0   1_556     S
V12     V16    9.999   .     S
V12     V15    9.999   .     S
V12     V32    10.001   1_655     S
V13     V10    9.999   1_554     S
V13     V14    10.0   .     S
V13     V14    10.0   1_554     S
V13     V15    10.0   .     S
V13     V16    10.0   1_554     S
V13     V34    10.001   1_554     S
V14     V13    10.0   1_556     S
V14     V16    10.0   .     S
V14     V15    10.0   .     S
V14     V33    10.001   .     S
V15     V16    10.0   1_554     S
V15     V16    10.0   .     S
V15     V47    10.001   .     S
V16     V13    10.0   1_556     S
V16     V11    9.999   1_556     S
V16     V15    10.0   1_556     S
V16     V48    10.001   .     S
V17     V22    9.999   1_554     S
V17     V18    10.0   .     S
V17     V18    10.0   1_554     S
V17     V19    10.0   1_455     S
V17     V20    10.0   1_454     S
V17     V21    9.999   .     S
V17     V30    10.001   1_554     S
V18     V21    9.999   .     S
V18     V17    10.0   1_556     S
V18     V20    10.0   1_455     S
V18     V19    10.0   1_455     S
V18     V22    9.999   .     S
V18     V29    10.001   .     S
V19     V17    10.0   1_655     S
V19     V18    10.0   1_655     S
V19     V20    10.0   .     S
V19     V20    10.0   1_554     S
V19     V23    9.999   .     S
V19     V24    9.999   1_554     S
V20     V18    10.0   1_655     S
V20     V17    10.0   1_656     S
V20     V19    10.0   1_556     S
V20     V24    9.999   .     S
V20     V23    9.999   .     S
V21     V23    10.0   1_455     S
V21     V22    10.0   1_554     S
V21     V22    10.0   .     S
V21     V24    10.0   1_454     S
V22     V17    9.999   1_556     S
V22     V24    10.0   1_455     S
V22     V21    10.0   1_556     S
V22     V23    10.0   1_455     S
V23     V21    10.0   1_655     S
V23     V22    10.0   1_655     S
V23     V24    10.0   1_554     S
V23     V24    10.0   .     S
V23     V50    10.001   .     S
V24     V22    10.0   1_655     S
V24     V21    10.0   1_656     S
V24     V19    9.999   1_556     S
V24     V23    10.0   1_556     S
V24     V49    10.001   1_556     S
V25     V28    10.0   1_554     S
V25     V26    10.0   .     S
V25     V26    10.0   1_554     S
V25     V29    9.999   .     S
V25     V27    10.0   .     S
V25     V30    9.999   1_554     S
V25     V59    10.001   .     S
V26     V27    10.0   .     S
V26     V25    10.0   1_556     S
V26     V30    9.999   .     S
V26     V28    10.0   .     S
V26     V29    9.999   .     S
V26     V60    10.001   .     S
V27     V31    9.999   .     S
V27     V28    10.0   1_554     S
V27     V28    10.0   .     S
V27     V32    9.999   .     S
V27     V71    10.001   1_565     S
V28     V25    10.0   1_556     S
V28     V32    9.999   .     S
V28     V27    10.0   1_556     S
V28     V31    9.999   1_556     S
V28     V72    10.001   1_565     S
V29     V30    10.0   1_554     S
V29     V30    10.0   .     S
V29     V32    10.0   .     S
V29     V31    10.0   .     S
V30     V25    9.999   1_556     S
V30     V29    10.0   1_556     S
V30     V31    10.0   1_556     S
V30     V32    10.0   .     S
V30     V17    10.001   1_556     S
V31     V30    10.0   1_554     S
V31     V28    9.999   1_554     S
V31     V32    10.0   .     S
V31     V32    10.0   1_554     S
V31     V11    10.001   1_455     S
V32     V31    10.0   1_556     S
V32     V12    10.001   1_455     S
V33     V35    10.0   .     S
V33     V34    10.0   1_554     S
V33     V34    10.0   .     S
V33     V38    9.999   .     S
V33     V36    10.0   .     S
V33     V37    9.999   .     S
V34     V36    10.0   .     S
V34     V33    10.0   1_556     S
V34     V37    9.999   1_556     S
V34     V35    10.0   1_556     S
V34     V38    9.999   .     S
V34     V13    10.001   1_556     S
V35     V34    10.0   1_554     S
V35     V39    9.999   .     S
V35     V36    10.0   1_554     S
V35     V36    10.0   .     S
V35     V40    9.999   .     S
V35     V45    10.001   .     S
V36     V40    9.999   .     S
V36     V35    10.0   1_556     S
V36     V39    9.999   1_556     S
V36     V46    10.001   .     S
V37     V34    9.999   1_554     S
V37     V38    10.0   .     S
V37     V38    10.0   1_554     S
V37     V39    10.0   .     S
V37     V40    10.0   .     S
V37     V67    10.001   .     S
V38     V37    10.0   1_556     S
V38     V40    10.0   .     S
V38     V39    10.0   1_556     S
V38     V68    10.001   .     S
V39     V6    10.001   1_554     S
V39     V38    10.0   1_554     S
V39     V40    10.0   .     S
V39     V40    10.0   1_554     S
V39     V36    9.999   1_554     S
V40     V39    10.0   1_556     S
V41     V46    9.999   .     S
V41     V42    10.0   1_554     S
V41     V42    10.0   .     S
V41     V44    10.0   .     S
V41     V43    10.0   .     S
V41     V45    9.999   .     S
V41     V64    10.001   .     S
V42     V45    9.999   1_556     S
V42     V41    10.0   1_556     S
V42     V43    10.0   1_556     S
V42     V44    10.0   .     S
V42     V46    9.999   .     S
V42     V63    10.001   1_556     S
V43     V42    10.0   1_554     S
V43     V48    9.999   1_554     S
V43     V44    10.0   .     S
V43     V44    10.0   1_554     S
V43     V47    9.999   .     S
V43     V55    10.001   1_565     S
V44     V47    9.999   .     S
V44     V43    10.0   1_556     S
V44     V48    9.999   .     S
V44     V56    10.001   1_565     S
V45     V42    9.999   1_554     S
V45     V46    10.0   .     S
V45     V46    10.0   1_554     S
V45     V48    10.0   1_554     S
V45     V47    10.0   .     S
V46     V45    10.0   1_556     S
V46     V47    10.0   .     S
V46     V48    10.0   .     S
V47     V48    10.0   1_554     S
V47     V48    10.0   .     S
V48     V43    9.999   1_556     S
V48     V45    10.0   1_556     S
V48     V47    10.0   1_556     S
V49     V51    10.0   .     S
V49     V50    10.0   .     S
V49     V50    10.0   1_554     S
V49     V54    9.999   1_554     S
V49     V52    10.0   1_554     S
V49     V53    9.999   .     S
V49     V24    10.001   1_554     S
V50     V52    10.0   .     S
V50     V49    10.0   1_556     S
V50     V53    9.999   .     S
V50     V51    10.0   .     S
V50     V54    9.999   .     S
V51     V56    9.999   .     S
V51     V52    10.0   1_554     S
V51     V52    10.0   .     S
V51     V55    9.999   .     S
V51     V3    10.001   1_655     S
V52     V49    10.0   1_556     S
V52     V55    9.999   1_556     S
V52     V51    10.0   1_556     S
V52     V56    9.999   .     S
V52     V4    10.001   1_655     S
V53     V54    10.0   1_554     S
V53     V54    10.0   .     S
V53     V55    10.0   .     S
V53     V56    10.0   .     S
V53     V61    10.001   .     S
V54     V49    9.999   1_556     S
V54     V53    10.0   1_556     S
V54     V56    10.0   .     S
V54     V55    10.0   1_556     S
V54     V62    10.001   .     S
V55     V43    10.001   1_545     S
V55     V52    9.999   1_554     S
V55     V54    10.0   1_554     S
V55     V56    10.0   .     S
V55     V56    10.0   1_554     S
V56     V44    10.001   1_545     S
V56     V55    10.0   1_556     S
V57     V62    9.999   .     S
V57     V58    10.0   1_554     S
V57     V58    10.0   .     S
V57     V59    10.0   1_545     S
V57     V60    10.0   1_545     S
V57     V61    9.999   .     S
V57     V70    10.001   .     S
V58     V61    9.999   1_556     S
V58     V57    10.0   1_556     S
V58     V60    10.0   1_545     S
V58     V59    10.0   1_546     S
V58     V62    9.999   .     S
V58     V69    10.001   1_556     S
V59     V57    10.0   1_565     S
V59     V58    10.0   1_564     S
V59     V60    10.0   1_554     S
V59     V60    10.0   .     S
V59     V63    9.999   .     S
V59     V64    9.999   .     S
V60     V58    10.0   1_565     S
V60     V57    10.0   1_565     S
V60     V59    10.0   1_556     S
V60     V64    9.999   .     S
V60     V63    9.999   1_556     S
V61     V58    9.999   1_554     S
V61     V62    10.0   .     S
V61     V62    10.0   1_554     S
V61     V63    10.0   1_545     S
V61     V64    10.0   1_545     S
V62     V61    10.0   1_556     S
V62     V64    10.0   1_545     S
V62     V63    10.0   1_546     S
V63     V61    10.0   1_565     S
V63     V62    10.0   1_564     S
V63     V64    10.0   .     S
V63     V64    10.0   1_554     S
V63     V60    9.999   1_554     S
V63     V42    10.001   1_554     S
V64     V62    10.0   1_565     S
V64     V61    10.0   1_565     S
V64     V63    10.0   1_556     S
V65     V66    10.0   .     S
V65     V66    10.0   1_554     S
V65     V71    9.999   .     S
V65     V67    10.0   .     S
V65     V68    10.0   1_554     S
V65     V72    9.999   1_554     S
V66     V65    10.0   1_556     S
V66     V72    9.999   .     S
V66     V68    10.0   .     S
V66     V67    10.0   .     S
V66     V71    9.999   .     S
V67     V69    9.999   .     S
V67     V68    10.0   1_554     S
V67     V68    10.0   .     S
V67     V70    9.999   .     S
V68     V65    10.0   1_556     S
V68     V70    9.999   .     S
V68     V67    10.0   1_556     S
V68     V69    9.999   1_556     S
V69     V58    10.001   1_554     S
V69     V68    9.999   1_554     S
V69     V70    10.0   .     S
V69     V70    10.0   1_554     S
V69     V71    10.0   .     S
V69     V72    10.0   1_554     S
V70     V69    10.0   1_556     S
V70     V72    10.0   .     S
V70     V71    10.0   .     S
V71     V27    10.001   1_545     S
V71     V72    10.0   1_554     S
V71     V72    10.0   .     S
V72     V28    10.001   1_545     S
V72     V69    10.0   1_556     S
V72     V65    9.999   1_556     S
V72     V71    10.0   1_556     S
