data_wny
_audit_creation_date              2020-02-02
_audit_creation_method            'Pymatgen'
_symmetry_space_group_name_H-M    'P1'
_symmetry_Int_Tables_number       1
loop_
_symmetry_equiv_pos_as_xyz
  x,y,z
_cell_length_a                    26.444
_cell_length_b                    26.444
_cell_length_c                    56.2805
_cell_angle_alpha                 90.0
_cell_angle_beta                 90.0
_cell_angle_gamma                 120.0
loop_
_atom_site_label
_atom_site_type_symbol
_atom_site_fract_x
_atom_site_fract_y
_atom_site_fract_z
V1     V     0.2857   0.4285   0.5034
V2     V     0.3809   0.4761   0.33
V3     V     0.7143   0.1427   0.9966
V4     V     0.6191   0.0951   0.17
V5     V     0.9524   0.1906   0.3367
V6     V     0.0476   0.2382   0.1633
V7     V     0.6191   0.5239   0.67
V8     V     0.7143   0.5715   0.4966
V9     V     0.0476   0.8094   0.6633
V10     V     0.9524   0.7618   0.8367
V11     V     0.3809   0.9049   0.83
V12     V     0.2857   0.8573   0.0034
V13     V     0.1906   0.2382   0.6633
V14     V     0.2382   0.1906   0.8367
V15     V     0.8094   0.7618   0.3367
V16     V     0.7618   0.8094   0.1633
V17     V     0.8573   0.5715   0.9966
V18     V     0.9049   0.5239   0.17
V19     V     0.0951   0.4761   0.83
V20     V     0.1427   0.4285   0.0034
V21     V     0.4761   0.0951   0.67
V22     V     0.4285   0.1427   0.4966
V23     V     0.5715   0.8573   0.5034
V24     V     0.5239   0.9049   0.33
V25     V     0.5239   0.6191   0.83
V26     V     0.5715   0.7143   0.0034
V27     V     0.9049   0.3809   0.67
V28     V     0.8573   0.2857   0.4966
V29     V     0.7618   0.9524   0.6633
V30     V     0.8094   0.0476   0.8367
V31     V     0.4285   0.2857   0.9966
V32     V     0.4761   0.3809   0.17
V33     V     0.1427   0.7143   0.5034
V34     V     0.0951   0.6191   0.33
V35     V     0.2382   0.0476   0.3367
V36     V     0.1906   0.9524   0.1633
loop_
_geom_bond_atom_site_label_1
_geom_bond_atom_site_label_2
_geom_bond_distance
_geom_bond_site_symmetry_2
_ccdc_geom_bond_type
V1     V13    10.0   .     S
V1     V8    10.0   .     S
V1     V23    10.0   .     S
V1     V2    10.0   .     S
V1     V33    10.0   .     S
V1     V22    10.0   .     S
V1     V28    10.0   1_455     S
V2     V32    10.0   .     S
V2     V5    10.0   1_455     S
V2     V34    10.0   .     S
V2     V24    10.0   .     S
V2     V15    10.0   .     S
V2     V35    10.0   .     S
V3     V30    10.0   .     S
V3     V4    10.0   1_556     S
V3     V12    10.0   1_546     S
V3     V31    10.0   .     S
V3     V17    10.0   .     S
V3     V20    10.0   1_656     S
V3     V26    10.0   1_546     S
V4     V24    10.0   1_545     S
V4     V3    10.0   1_554     S
V4     V6    10.0   1_655     S
V4     V18    10.0   .     S
V4     V32    10.0   .     S
V4     V36    10.0   1_545     S
V4     V16    10.0   1_545     S
V5     V28    10.0   .     S
V5     V2    10.0   1_655     S
V5     V35    10.0   1_655     S
V5     V6    10.0   1_655     S
V5     V15    10.0   1_545     S
V5     V34    10.0   1_655     S
V5     V24    10.0   1_545     S
V6     V20    10.0   .     S
V6     V5    10.0   1_455     S
V6     V4    10.0   1_455     S
V6     V16    10.0   1_445     S
V6     V36    10.0   1_545     S
V6     V32    10.0   .     S
V6     V18    10.0   1_455     S
V7     V25    10.0   .     S
V7     V8    10.0   .     S
V7     V9    10.0   1_655     S
V7     V27    10.0   .     S
V7     V21    10.0   .     S
V7     V13    10.0   .     S
V7     V29    10.0   .     S
V8     V15    10.0   .     S
V8     V22    10.0   .     S
V8     V28    10.0   .     S
V8     V33    10.0   1_655     S
V8     V23    10.0   .     S
V9     V33    10.0   .     S
V9     V7    10.0   1_455     S
V9     V29    10.0   1_455     S
V9     V10    10.0   1_455     S
V9     V13    10.0   1_565     S
V9     V21    10.0   1_565     S
V9     V27    10.0   1_455     S
V10     V17    10.0   .     S
V10     V9    10.0   1_655     S
V10     V11    10.0   1_655     S
V10     V14    10.0   1_665     S
V10     V30    10.0   1_565     S
V10     V19    10.0   1_655     S
V10     V25    10.0   .     S
V11     V21    10.0   1_565     S
V11     V12    10.0   1_556     S
V11     V10    10.0   1_455     S
V11     V19    10.0   .     S
V11     V25    10.0   .     S
V11     V14    10.0   1_565     S
V11     V30    10.0   1_565     S
V12     V36    10.0   .     S
V12     V3    10.0   1_564     S
V12     V26    10.0   .     S
V12     V11    10.0   1_554     S
V12     V20    10.0   .     S
V12     V17    10.0   1_454     S
V12     V31    10.0   1_564     S
V13     V14    10.0   .     S
V13     V21    10.0   .     S
V13     V9    10.0   1_545     S
V13     V29    10.0   1_445     S
V13     V27    10.0   1_455     S
V14     V31    10.0   .     S
V14     V10    10.0   1_445     S
V14     V19    10.0   .     S
V14     V30    10.0   1_455     S
V14     V11    10.0   1_545     S
V14     V25    10.0   .     S
V15     V16    10.0   .     S
V15     V24    10.0   .     S
V15     V5    10.0   1_565     S
V15     V35    10.0   1_665     S
V15     V34    10.0   1_655     S
V16     V26    10.0   .     S
V16     V6    10.0   1_665     S
V16     V18    10.0   .     S
V16     V36    10.0   1_655     S
V16     V4    10.0   1_565     S
V16     V32    10.0   .     S
V17     V18    10.0   1_556     S
V17     V20    10.0   1_656     S
V17     V31    10.0   .     S
V17     V12    10.0   1_656     S
V17     V26    10.0   1_556     S
V18     V34    10.0   1_655     S
V18     V32    10.0   .     S
V18     V17    10.0   1_554     S
V18     V36    10.0   1_655     S
V18     V6    10.0   1_655     S
V19     V27    10.0   1_455     S
V19     V25    10.0   .     S
V19     V20    10.0   1_556     S
V19     V10    10.0   1_455     S
V19     V30    10.0   1_455     S
V20     V19    10.0   1_554     S
V20     V17    10.0   1_454     S
V20     V26    10.0   .     S
V20     V3    10.0   1_454     S
V20     V31    10.0   1_554     S
V21     V11    10.0   1_545     S
V21     V22    10.0   .     S
V21     V27    10.0   .     S
V21     V29    10.0   1_545     S
V21     V9    10.0   1_545     S
V22     V35    10.0   .     S
V22     V23    10.0   1_545     S
V22     V28    10.0   .     S
V22     V33    10.0   1_545     S
V23     V29    10.0   .     S
V23     V24    10.0   .     S
V23     V22    10.0   1_565     S
V23     V33    10.0   .     S
V23     V28    10.0   1_565     S
V24     V4    10.0   1_565     S
V24     V34    10.0   .     S
V24     V35    10.0   1_565     S
V24     V5    10.0   1_565     S
V25     V26    10.0   1_556     S
V25     V30    10.0   1_565     S
V26     V31    10.0   1_554     S
V26     V25    10.0   1_554     S
V26     V3    10.0   1_564     S
V26     V17    10.0   1_554     S
V27     V19    10.0   1_655     S
V27     V28    10.0   .     S
V27     V29    10.0   1_545     S
V27     V13    10.0   1_655     S
V27     V9    10.0   1_655     S
V28     V33    10.0   1_655     S
V28     V1    10.0   1_655     S
V28     V23    10.0   1_545     S
V29     V9    10.0   1_655     S
V29     V30    10.0   1_565     S
V29     V27    10.0   1_565     S
V29     V13    10.0   1_665     S
V29     V21    10.0   1_565     S
V30     V14    10.0   1_655     S
V30     V25    10.0   1_545     S
V30     V10    10.0   1_545     S
V30     V29    10.0   1_545     S
V30     V19    10.0   1_655     S
V30     V11    10.0   1_545     S
V31     V26    10.0   1_556     S
V31     V32    10.0   1_556     S
V31     V20    10.0   1_556     S
V31     V12    10.0   1_546     S
V32     V31    10.0   1_554     S
V32     V36    10.0   1_545     S
V33     V28    10.0   1_455     S
V33     V34    10.0   .     S
V33     V8    10.0   1_455     S
V33     V22    10.0   1_565     S
V34     V18    10.0   1_455     S
V34     V35    10.0   1_565     S
V34     V5    10.0   1_455     S
V34     V15    10.0   1_455     S
V35     V5    10.0   1_455     S
V35     V36    10.0   1_545     S
V35     V34    10.0   1_545     S
V35     V15    10.0   1_445     S
V35     V24    10.0   1_545     S
V36     V16    10.0   1_455     S
V36     V32    10.0   1_565     S
V36     V6    10.0   1_565     S
V36     V35    10.0   1_565     S
V36     V4    10.0   1_565     S
V36     V18    10.0   1_455     S
