data_wnz
_audit_creation_date              2020-02-02
_audit_creation_method            'Pymatgen'
_symmetry_space_group_name_H-M    'P1'
_symmetry_Int_Tables_number       1
loop_
_symmetry_equiv_pos_as_xyz
  x,y,z
_cell_length_a                    19.7941
_cell_length_b                    19.7941
_cell_length_c                    103.2085
_cell_angle_alpha                 90.0
_cell_angle_beta                 90.0
_cell_angle_gamma                 120.0
loop_
_atom_site_label
_atom_site_type_symbol
_atom_site_fract_x
_atom_site_fract_y
_atom_site_fract_z
V1     V     0.6667   0.7916   0.7062
V2     V     0.7916   0.6667   0.7938
V3     V     0.3333   0.1249   0.7938
V4     V     0.2084   0.8751   0.7062
V5     V     0.8751   0.2084   0.7938
V6     V     0.1249   0.3333   0.7062
V7     V     0.3333   0.2084   0.5396
V8     V     0.4583   0.4583   0.6271
V9     V     0.7916   0.1249   0.5396
V10     V     0.5417   0.0   0.6271
V11     V     0.8751   0.6667   0.5396
V12     V     0.0   0.5417   0.6271
V13     V     0.1249   0.3333   0.4604
V14     V     0.0   0.4583   0.3729
V15     V     0.4583   0.0   0.3729
V16     V     0.2084   0.8751   0.4604
V17     V     0.5417   0.5417   0.3729
V18     V     0.6667   0.7916   0.4604
V19     V     0.8751   0.6667   0.2938
V20     V     0.1249   0.7916   0.2062
V21     V     0.2084   0.3333   0.2062
V22     V     0.3333   0.2084   0.2938
V23     V     0.6667   0.8751   0.2062
V24     V     0.7916   0.1249   0.2938
V25     V     0.7916   0.6667   0.0396
V26     V     0.5417   0.5417   0.1271
V27     V     0.8751   0.2084   0.0396
V28     V     0.0   0.4583   0.1271
V29     V     0.3333   0.1249   0.0396
V30     V     0.4583   0.0   0.1271
V31     V     0.4583   0.4583   0.8729
V32     V     0.2084   0.3333   0.9604
V33     V     0.0   0.5417   0.8729
V34     V     0.1249   0.7916   0.9604
V35     V     0.6667   0.8751   0.9604
V36     V     0.5417   0.0   0.8729
loop_
_geom_bond_atom_site_label_1
_geom_bond_atom_site_label_2
_geom_bond_distance
_geom_bond_site_symmetry_2
_ccdc_geom_bond_type
V1     V2    10.0   .     S
V1     V10    10.0   1_565     S
V1     V4    10.0   .     S
V1     V4    10.0   1_655     S
V1     V6    10.0   1_665     S
V1     V6    10.0   .     S
V1     V8    10.0   .     S
V2     V33    10.0   1_655     S
V2     V5    10.0   .     S
V2     V3    10.0   .     S
V2     V5    10.0   1_565     S
V2     V3    10.0   1_665     S
V2     V31    10.0   .     S
V3     V4    10.0   1_545     S
V3     V31    10.0   .     S
V3     V5    10.0   .     S
V3     V5    10.0   1_455     S
V3     V2    10.0   1_445     S
V3     V36    10.0   .     S
V4     V1    10.0   1_455     S
V4     V3    10.0   1_565     S
V4     V12    10.0   .     S
V4     V6    10.0   .     S
V4     V6    10.0   1_565     S
V4     V10    10.0   1_565     S
V5     V6    10.0   1_655     S
V5     V36    10.0   .     S
V5     V3    10.0   1_655     S
V5     V2    10.0   1_545     S
V5     V33    10.0   1_655     S
V6     V1    10.0   1_445     S
V6     V5    10.0   1_455     S
V6     V8    10.0   .     S
V6     V4    10.0   1_545     S
V6     V12    10.0   .     S
V7     V8    10.0   .     S
V7     V16    10.0   1_545     S
V7     V11    10.0   1_445     S
V7     V9    10.0   1_455     S
V7     V9    10.0   .     S
V7     V11    10.0   .     S
V7     V13    10.0   .     S
V8     V10    10.0   1_565     S
V8     V12    10.0   .     S
V8     V12    10.0   1_655     S
V8     V10    10.0   .     S
V9     V10    10.0   .     S
V9     V13    10.0   1_655     S
V9     V7    10.0   1_655     S
V9     V11    10.0   1_545     S
V9     V11    10.0   .     S
V9     V18    10.0   1_545     S
V10     V1    10.0   1_545     S
V10     V8    10.0   1_545     S
V10     V4    10.0   1_545     S
V10     V12    10.0   1_545     S
V10     V12    10.0   1_655     S
V11     V7    10.0   1_665     S
V11     V12    10.0   1_655     S
V11     V18    10.0   .     S
V11     V9    10.0   1_565     S
V11     V16    10.0   1_655     S
V12     V10    10.0   1_565     S
V12     V11    10.0   1_455     S
V12     V8    10.0   1_455     S
V12     V10    10.0   1_455     S
V13     V9    10.0   1_455     S
V13     V14    10.0   .     S
V13     V16    10.0   1_545     S
V13     V18    10.0   1_445     S
V13     V16    10.0   .     S
V13     V18    10.0   .     S
V14     V19    10.0   1_455     S
V14     V17    10.0   1_455     S
V14     V15    10.0   1_455     S
V14     V17    10.0   .     S
V14     V15    10.0   1_565     S
V14     V24    10.0   1_455     S
V15     V16    10.0   1_545     S
V15     V24    10.0   .     S
V15     V14    10.0   1_655     S
V15     V17    10.0   .     S
V15     V17    10.0   1_545     S
V15     V14    10.0   1_545     S
V15     V22    10.0   .     S
V16     V7    10.0   1_565     S
V16     V13    10.0   1_565     S
V16     V15    10.0   1_565     S
V16     V11    10.0   1_455     S
V16     V18    10.0   1_455     S
V16     V18    10.0   .     S
V17     V14    10.0   1_655     S
V17     V18    10.0   .     S
V17     V22    10.0   .     S
V17     V15    10.0   1_565     S
V17     V19    10.0   .     S
V18     V16    10.0   1_655     S
V18     V9    10.0   1_565     S
V18     V13    10.0   1_665     S
V19     V14    10.0   1_655     S
V19     V20    10.0   1_655     S
V19     V22    10.0   .     S
V19     V24    10.0   .     S
V19     V24    10.0   1_565     S
V19     V22    10.0   1_665     S
V20     V19    10.0   1_455     S
V20     V30    10.0   1_565     S
V20     V23    10.0   .     S
V20     V21    10.0   1_565     S
V20     V23    10.0   1_455     S
V20     V21    10.0   .     S
V20     V28    10.0   .     S
V21     V20    10.0   1_545     S
V21     V22    10.0   .     S
V21     V28    10.0   .     S
V21     V23    10.0   .     S
V21     V23    10.0   1_445     S
V21     V26    10.0   .     S
V22     V24    10.0   .     S
V22     V24    10.0   1_455     S
V22     V19    10.0   1_445     S
V23     V20    10.0   1_655     S
V23     V24    10.0   1_565     S
V23     V26    10.0   .     S
V23     V21    10.0   1_665     S
V23     V30    10.0   1_565     S
V24     V23    10.0   1_545     S
V24     V14    10.0   1_655     S
V24     V22    10.0   1_655     S
V24     V19    10.0   1_545     S
V25     V29    10.0   .     S
V25     V26    10.0   .     S
V25     V34    10.0   1_654     S
V25     V29    10.0   1_665     S
V25     V27    10.0   1_565     S
V25     V27    10.0   .     S
V25     V35    10.0   1_554     S
V26     V28    10.0   .     S
V26     V30    10.0   1_565     S
V26     V30    10.0   .     S
V26     V28    10.0   1_655     S
V27     V29    10.0   .     S
V27     V28    10.0   1_655     S
V27     V35    10.0   1_544     S
V27     V25    10.0   1_545     S
V27     V29    10.0   1_655     S
V27     V32    10.0   1_654     S
V28     V27    10.0   1_455     S
V28     V30    10.0   1_565     S
V28     V26    10.0   1_455     S
V28     V30    10.0   1_455     S
V29     V25    10.0   1_445     S
V29     V30    10.0   .     S
V29     V32    10.0   1_554     S
V29     V27    10.0   1_455     S
V29     V34    10.0   1_544     S
V30     V20    10.0   1_545     S
V30     V28    10.0   1_545     S
V30     V23    10.0   1_545     S
V30     V26    10.0   1_545     S
V30     V28    10.0   1_655     S
V31     V33    10.0   .     S
V31     V32    10.0   .     S
V31     V33    10.0   1_655     S
V31     V36    10.0   .     S
V31     V36    10.0   1_565     S
V32     V29    10.0   1_556     S
V32     V27    10.0   1_456     S
V32     V35    10.0   1_445     S
V32     V34    10.0   1_545     S
V32     V34    10.0   .     S
V32     V35    10.0   .     S
V33     V2    10.0   1_455     S
V33     V36    10.0   1_565     S
V33     V31    10.0   1_455     S
V33     V34    10.0   .     S
V33     V5    10.0   1_455     S
V33     V36    10.0   1_455     S
V34     V25    10.0   1_456     S
V34     V29    10.0   1_566     S
V34     V32    10.0   1_565     S
V34     V35    10.0   1_455     S
V34     V35    10.0   .     S
V35     V27    10.0   1_566     S
V35     V32    10.0   1_665     S
V35     V36    10.0   1_565     S
V35     V25    10.0   1_556     S
V35     V34    10.0   1_655     S
V36     V33    10.0   1_545     S
V36     V33    10.0   1_655     S
V36     V35    10.0   1_545     S
V36     V31    10.0   1_545     S
