data_wut
_audit_creation_date              2020-02-02
_audit_creation_method            'Pymatgen'
_symmetry_space_group_name_H-M    'P1'
_symmetry_Int_Tables_number       1
loop_
_symmetry_equiv_pos_as_xyz
  x,y,z
_cell_length_a                    28.484
_cell_length_b                    28.484
_cell_length_c                    29.5908
_cell_angle_alpha                 90.0
_cell_angle_beta                 90.0
_cell_angle_gamma                 90.0
loop_
_atom_site_label
_atom_site_type_symbol
_atom_site_fract_x
_atom_site_fract_y
_atom_site_fract_z
V1     V     0.8191   0.5352   0.8632
V2     V     0.9648   0.6809   0.1368
V3     V     0.4648   0.8191   0.1368
V4     V     0.3191   0.9648   0.8632
V5     V     0.5352   0.1809   0.1368
V6     V     0.6809   0.0352   0.8632
V7     V     0.0352   0.3191   0.1368
V8     V     0.1809   0.4648   0.8632
Er9     Er     0.0   0.0   0.0
Er10     Er     0.5   0.5   0.0
V11     V     0.9648   0.3191   0.6368
V12     V     0.8191   0.4648   0.3632
V13     V     0.5352   0.8191   0.6368
V14     V     0.6809   0.9648   0.3632
V15     V     0.0352   0.6809   0.6368
V16     V     0.1809   0.5352   0.3632
V17     V     0.4648   0.1809   0.6368
V18     V     0.3191   0.0352   0.3632
Er19     Er     0.0   0.0   0.5
Er20     Er     0.5   0.5   0.5
loop_
_geom_bond_atom_site_label_1
_geom_bond_atom_site_label_2
_geom_bond_distance
_geom_bond_site_symmetry_2
_ccdc_geom_bond_type
V1     V2    10.0   1_556     S
V1     Er10    10.0   1_556     S
V1     V11    10.0   .     S
V1     V15    10.0   1_655     S
V2     V1    10.0   1_554     S
V2     Er9    10.0   1_665     S
V2     V16    10.0   1_655     S
V2     V12    10.0   .     S
V3     V4    10.0   1_554     S
V3     Er10    10.0   .     S
V3     V14    10.0   .     S
V3     V18    10.0   1_565     S
V4     V3    10.0   1_556     S
V4     Er9    10.0   1_566     S
V4     V17    10.0   1_565     S
V4     V13    10.0   .     S
V5     V6    10.0   1_554     S
V5     Er10    10.0   .     S
V5     V18    10.0   .     S
V5     V14    10.0   1_545     S
V6     V5    10.0   1_556     S
V6     Er9    10.0   1_656     S
V6     V13    10.0   1_545     S
V6     V17    10.0   .     S
V7     V8    10.0   1_554     S
V7     Er9    10.0   .     S
V7     V12    10.0   1_455     S
V7     V16    10.0   .     S
V8     V7    10.0   1_556     S
V8     Er10    10.0   1_556     S
V8     V15    10.0   .     S
V8     V11    10.0   1_455     S
Er9     V2    10.0   1_445     S
Er9     V4    10.0   1_544     S
Er9     V6    10.0   1_454     S
Er10     V1    10.0   1_554     S
Er10     V8    10.0   1_554     S
V11     V12    10.0   .     S
V11     Er19    10.0   1_655     S
V11     V8    10.0   1_655     S
V12     V7    10.0   1_655     S
V12     Er20    10.0   .     S
V13     V6    10.0   1_565     S
V13     V14    10.0   .     S
V13     Er20    10.0   .     S
V14     Er19    10.0   1_665     S
V14     V5    10.0   1_565     S
V15     V16    10.0   .     S
V15     Er19    10.0   1_565     S
V15     V1    10.0   1_455     S
V16     V2    10.0   1_455     S
V16     Er20    10.0   .     S
V17     V4    10.0   1_545     S
V17     V18    10.0   .     S
V17     Er20    10.0   .     S
V18     Er19    10.0   .     S
V18     V3    10.0   1_545     S
Er19     V11    10.0   1_455     S
Er19     V14    10.0   1_445     S
Er19     V15    10.0   1_545     S
