data_wxsa
_audit_creation_date              2020-02-02
_audit_creation_method            'Pymatgen'
_symmetry_space_group_name_H-M    'P1'
_symmetry_Int_Tables_number       1
loop_
_symmetry_equiv_pos_as_xyz
  x,y,z
_cell_length_a                    113.2436
_cell_length_b                    113.2436
_cell_length_c                    57.1218
_cell_angle_alpha                 90.0
_cell_angle_beta                 90.0
_cell_angle_gamma                 90.0
loop_
_atom_site_label
_atom_site_type_symbol
_atom_site_fract_x
_atom_site_fract_y
_atom_site_fract_z
Ce1     Ce     0.4688   0.9688   0.9125
Ce2     Ce     0.4688   0.9688   0.0875
Ce3     Ce     0.5312   0.0312   0.9125
Ce4     Ce     0.5312   0.0312   0.0875
Ce5     Ce     0.9688   0.5312   0.9125
Ce6     Ce     0.9688   0.5312   0.0875
Ce7     Ce     0.0312   0.4688   0.9125
Ce8     Ce     0.0312   0.4688   0.0875
V9     V     0.578   0.1405   0.6698
V10     V     0.6405   0.078   0.6698
He11     He     0.5729   0.0729   0.782
V12     V     0.078   0.3595   0.6698
V13     V     0.1405   0.422   0.6698
He14     He     0.0729   0.4271   0.782
V15     V     0.3595   0.922   0.6698
V16     V     0.422   0.8595   0.6698
He17     He     0.4271   0.9271   0.782
V18     V     0.8595   0.578   0.6698
V19     V     0.922   0.6405   0.6698
He20     He     0.9271   0.5729   0.782
V21     V     0.422   0.8595   0.3302
V22     V     0.3595   0.922   0.3302
He23     He     0.4271   0.9271   0.218
V24     V     0.8595   0.578   0.3302
V25     V     0.922   0.6405   0.3302
He26     He     0.9271   0.5729   0.218
V27     V     0.578   0.1405   0.3302
V28     V     0.6405   0.078   0.3302
He29     He     0.5729   0.0729   0.218
H30     H     0.6471   0.346   0.3441
Ti31     Ti     0.7113   0.3516   0.2244
Er32     Er     0.4166   0.2997   0.341
Er33     Er     0.4166   0.2997   0.659
B34     B     0.4947   0.2798   0.5875
Li35     Li     0.5809   0.2989   0.5875
B36     B     0.4947   0.2798   0.4125
Li37     Li     0.5809   0.2989   0.4125
Be38     Be     0.5543   0.2147   0.5875
Be39     Be     0.5543   0.2147   0.4125
H40     H     0.6471   0.346   0.6559
Ti41     Ti     0.7113   0.3516   0.7756
H42     H     0.846   0.1471   0.3441
Ti43     Ti     0.8516   0.2113   0.2244
Er44     Er     0.7997   0.9166   0.341
Er45     Er     0.7997   0.9166   0.659
B46     B     0.7798   0.9947   0.5875
Li47     Li     0.7989   0.0809   0.5875
B48     B     0.7798   0.9947   0.4125
Li49     Li     0.7989   0.0809   0.4125
Be50     Be     0.7147   0.0543   0.4125
Be51     Be     0.7147   0.0543   0.5875
H52     H     0.846   0.1471   0.6559
Ti53     Ti     0.8516   0.2113   0.7756
S54     S     0.8125   0.2501   0.9125
S55     S     0.8125   0.2501   0.0875
S56     S     0.7501   0.3125   0.9125
S57     S     0.7501   0.3125   0.0875
H58     H     0.654   0.6471   0.3441
Ti59     Ti     0.6484   0.7113   0.2244
Er60     Er     0.7003   0.4166   0.341
Er61     Er     0.7003   0.4166   0.659
B62     B     0.7202   0.4947   0.5875
Li63     Li     0.7011   0.5809   0.5875
B64     B     0.7202   0.4947   0.4125
Li65     Li     0.7011   0.5809   0.4125
Be66     Be     0.7853   0.5543   0.5875
Be67     Be     0.7853   0.5543   0.4125
H68     H     0.654   0.6471   0.6559
Ti69     Ti     0.6484   0.7113   0.7756
H70     H     0.8529   0.846   0.3441
Ti71     Ti     0.7887   0.8516   0.2244
Er72     Er     0.0834   0.7997   0.341
Er73     Er     0.0834   0.7997   0.659
B74     B     0.0053   0.7798   0.5875
Li75     Li     0.9191   0.7989   0.5875
B76     B     0.0053   0.7798   0.4125
Li77     Li     0.9191   0.7989   0.4125
Be78     Be     0.9457   0.7147   0.4125
Be79     Be     0.9457   0.7147   0.5875
H80     H     0.8529   0.846   0.6559
Ti81     Ti     0.7887   0.8516   0.7756
S82     S     0.7499   0.8125   0.9125
S83     S     0.7499   0.8125   0.0875
S84     S     0.6875   0.7501   0.9125
S85     S     0.6875   0.7501   0.0875
S86     S     0.2501   0.1875   0.9125
S87     S     0.2501   0.1875   0.0875
S88     S     0.3125   0.2499   0.9125
S89     S     0.3125   0.2499   0.0875
H90     H     0.1471   0.154   0.3441
Ti91     Ti     0.2113   0.1484   0.2244
Er92     Er     0.9166   0.2003   0.341
Er93     Er     0.9166   0.2003   0.659
Be94     Be     0.0543   0.2853   0.4125
Be95     Be     0.0543   0.2853   0.5875
B96     B     0.9947   0.2202   0.5875
Li97     Li     0.0809   0.2011   0.5875
B98     B     0.9947   0.2202   0.4125
Li99     Li     0.0809   0.2011   0.4125
H100     H     0.1471   0.154   0.6559
Ti101     Ti     0.2113   0.1484   0.7756
H102     H     0.346   0.3529   0.6559
Ti103     Ti     0.3516   0.2887   0.7756
Er104     Er     0.2997   0.5834   0.659
Er105     Er     0.2997   0.5834   0.341
B106     B     0.2798   0.5053   0.4125
Li107     Li     0.2989   0.4191   0.4125
B108     B     0.2798   0.5053   0.5875
Li109     Li     0.2989   0.4191   0.5875
Be110     Be     0.2147   0.4457   0.5875
Be111     Be     0.2147   0.4457   0.4125
H112     H     0.346   0.3529   0.3441
Ti113     Ti     0.3516   0.2887   0.2244
H114     H     0.3529   0.654   0.3441
Ti115     Ti     0.2887   0.6484   0.2244
Er116     Er     0.5834   0.7003   0.659
Er117     Er     0.5834   0.7003   0.341
B118     B     0.5053   0.7202   0.4125
Li119     Li     0.4191   0.7011   0.4125
B120     B     0.5053   0.7202   0.5875
Li121     Li     0.4191   0.7011   0.5875
Be122     Be     0.4457   0.7853   0.5875
Be123     Be     0.4457   0.7853   0.4125
H124     H     0.3529   0.654   0.6559
Ti125     Ti     0.2887   0.6484   0.7756
H126     H     0.154   0.8529   0.3441
Ti127     Ti     0.1484   0.7887   0.2244
Er128     Er     0.2003   0.0834   0.341
Er129     Er     0.2003   0.0834   0.659
B130     B     0.2202   0.0053   0.5875
Li131     Li     0.2011   0.9191   0.5875
B132     B     0.2202   0.0053   0.4125
Li133     Li     0.2011   0.9191   0.4125
Be134     Be     0.2853   0.9457   0.4125
Be135     Be     0.2853   0.9457   0.5875
H136     H     0.154   0.8529   0.6559
Ti137     Ti     0.1484   0.7887   0.7756
S138     S     0.1875   0.7499   0.9125
S139     S     0.1875   0.7499   0.0875
S140     S     0.2499   0.6875   0.9125
S141     S     0.2499   0.6875   0.0875
V142     V     0.1405   0.422   0.3302
V143     V     0.078   0.3595   0.3302
He144     He     0.0729   0.4271   0.218
loop_
_geom_bond_atom_site_label_1
_geom_bond_atom_site_label_2
_geom_bond_distance
_geom_bond_site_symmetry_2
_ccdc_geom_bond_type
Ce1     Ce2    10.0   1_556     S
Ce1     Ce3    10.0   1_565     S
Ce1     He17    10.001   .     S
Ce2     Ce1    10.0   1_554     S
Ce2     Ce4    10.0   1_565     S
Ce2     He23    10.001   .     S
Ce3     Ce4    10.0   1_556     S
Ce3     Ce1    10.0   1_545     S
Ce3     He11    10.001   .     S
Ce4     Ce3    10.0   1_554     S
Ce4     Ce2    10.0   1_545     S
Ce4     He29    10.001   .     S
Ce5     Ce6    10.0   1_556     S
Ce5     Ce7    10.0   1_655     S
Ce5     He20    10.001   .     S
Ce6     Ce5    10.0   1_554     S
Ce6     Ce8    10.0   1_655     S
Ce6     He26    10.001   .     S
Ce7     Ce8    10.0   1_556     S
Ce7     Ce5    10.0   1_455     S
Ce7     He14    10.001   .     S
Ce8     Ce7    10.0   1_554     S
Ce8     Ce6    10.0   1_455     S
Ce8     He144    10.001   .     S
V9     He11    10.0   .     S
V9     V10    10.001   .     S
V9     Be38    10.0   .     S
V10     He11    10.0   .     S
V10     Be51    10.0   .     S
V12     He14    10.0   .     S
V12     V13    10.001   .     S
V12     Be95    10.0   .     S
V13     He14    10.0   .     S
V13     Be110    10.0   .     S
V15     He17    10.0   .     S
V15     V16    10.001   .     S
V15     Be135    10.0   .     S
V16     He17    10.0   .     S
V16     Be122    10.0   .     S
V18     He20    10.0   .     S
V18     V19    10.001   .     S
V18     Be66    10.0   .     S
V19     He20    10.0   .     S
V19     Be79    10.0   .     S
V21     He23    10.0   .     S
V21     V22    10.001   .     S
V21     Be123    10.0   .     S
V22     He23    10.0   .     S
V22     Be134    10.0   .     S
V24     He26    10.0   .     S
V24     V25    10.001   .     S
V24     Be67    10.0   .     S
V25     He26    10.0   .     S
V25     Be78    10.0   .     S
V27     He29    10.0   .     S
V27     V28    10.001   .     S
V27     Be39    10.0   .     S
V28     He29    10.0   .     S
V28     Be50    10.0   .     S
H30     Er60    10.0   .     S
H30     Ti31    10.0   .     S
H30     Li37    10.0   .     S
Ti31     Er60    10.0   .     S
Ti31     S57    10.0   .     S
Er32     B36    10.0   .     S
Er32     H112    10.0   .     S
Er32     Ti113    10.0   .     S
Er33     B34    10.0   .     S
Er33     H102    10.0   .     S
Er33     Ti103    10.0   .     S
B34     Be38    9.999   .     S
B34     Li35    10.0   .     S
B34     B36    10.0   .     S
Li35     Be38    10.0   .     S
Li35     Li37    10.0   .     S
Li35     H40    10.0   .     S
B36     Be39    9.999   .     S
B36     Li37    10.0   .     S
Li37     Be39    10.0   .     S
Be38     Be39    10.0   .     S
H40     Er61    10.0   .     S
H40     Ti41    10.0   .     S
Ti41     Er61    10.0   .     S
Ti41     S56    10.0   .     S
H42     Er92    10.0   .     S
H42     Ti43    10.0   .     S
H42     Li49    10.0   .     S
Ti43     Er92    10.0   .     S
Ti43     S55    10.0   .     S
Er44     B48    10.0   .     S
Er44     H70    10.0   .     S
Er44     Ti71    10.0   .     S
Er45     B46    10.0   .     S
Er45     H80    10.0   .     S
Er45     Ti81    10.0   .     S
B46     Be51    9.999   1_565     S
B46     Li47    10.0   1_565     S
B46     B48    10.0   .     S
Li47     B46    10.0   1_545     S
Li47     Be51    10.0   .     S
Li47     Li49    10.0   .     S
Li47     H52    10.0   .     S
B48     Be50    9.999   1_565     S
B48     Li49    10.0   1_565     S
Li49     B48    10.0   1_545     S
Li49     Be50    10.0   .     S
Be50     B48    9.999   1_545     S
Be50     Be51    10.0   .     S
Be51     B46    9.999   1_545     S
H52     Er93    10.0   .     S
H52     Ti53    10.0   .     S
Ti53     Er93    10.0   .     S
Ti53     S54    10.0   .     S
S54     S55    10.0   1_556     S
S54     S56    10.0   .     S
S55     S54    10.0   1_554     S
S55     S57    10.0   .     S
S56     S57    10.0   1_556     S
S57     S56    10.0   1_554     S
H58     Er117    10.0   .     S
H58     Ti59    10.0   .     S
H58     Li65    10.0   .     S
Ti59     Er117    10.0   .     S
Ti59     S85    10.0   .     S
Er60     B64    10.0   .     S
Er61     B62    10.0   .     S
B62     Be66    9.999   .     S
B62     Li63    10.0   .     S
B62     B64    10.0   .     S
Li63     Be66    10.0   .     S
Li63     Li65    10.0   .     S
Li63     H68    10.0   .     S
B64     Be67    9.999   .     S
B64     Li65    10.0   .     S
Li65     Be67    10.0   .     S
Be66     Be67    10.0   .     S
H68     Er116    10.0   .     S
H68     Ti69    10.0   .     S
Ti69     Er116    10.0   .     S
Ti69     S84    10.0   .     S
H70     Ti71    10.0   .     S
H70     Li77    10.0   .     S
Ti71     S83    10.0   .     S
Er72     B76    10.0   .     S
Er72     H126    10.0   .     S
Er72     Ti127    10.0   .     S
Er73     B74    10.0   .     S
Er73     H136    10.0   .     S
Er73     Ti137    10.0   .     S
B74     Be79    9.999   1_455     S
B74     Li75    10.0   1_455     S
B74     B76    10.0   .     S
Li75     B74    10.0   1_655     S
Li75     Be79    10.0   .     S
Li75     Li77    10.0   .     S
Li75     H80    10.0   .     S
B76     Be78    9.999   1_455     S
B76     Li77    10.0   1_455     S
Li77     B76    10.0   1_655     S
Li77     Be78    10.0   .     S
Be78     B76    9.999   1_655     S
Be78     Be79    10.0   .     S
Be79     B74    9.999   1_655     S
H80     Ti81    10.0   .     S
Ti81     S82    10.0   .     S
S82     S83    10.0   1_556     S
S82     S84    10.0   .     S
S83     S82    10.0   1_554     S
S83     S85    10.0   .     S
S84     S85    10.0   1_556     S
S85     S84    10.0   1_554     S
S86     S87    10.0   1_556     S
S86     S88    10.0   .     S
S86     Ti101    10.0   .     S
S87     S86    10.0   1_554     S
S87     S89    10.0   .     S
S87     Ti91    10.0   .     S
S88     S89    10.0   1_556     S
S88     Ti103    10.0   .     S
S89     S88    10.0   1_554     S
S89     Ti113    10.0   .     S
H90     Er128    10.0   .     S
H90     Ti91    10.0   .     S
H90     Li99    10.0   .     S
Ti91     Er128    10.0   .     S
Er92     B98    10.0   .     S
Er93     B96    10.0   .     S
Be94     Be95    10.0   .     S
Be94     B98    9.999   1_455     S
Be94     Li99    10.0   .     S
Be94     V143    10.0   .     S
Be95     B96    9.999   1_455     S
Be95     Li97    10.0   .     S
B96     Be95    9.999   1_655     S
B96     Li97    10.0   1_655     S
B96     B98    10.0   .     S
Li97     B96    10.0   1_455     S
Li97     Li99    10.0   .     S
Li97     H100    10.0   .     S
B98     Be94    9.999   1_655     S
B98     Li99    10.0   1_655     S
Li99     B98    10.0   1_455     S
H100     Er129    10.0   .     S
H100     Ti101    10.0   .     S
Ti101     Er129    10.0   .     S
H102     Ti103    10.0   .     S
H102     Li109    10.0   .     S
Er104     B108    10.0   .     S
Er104     H124    10.0   .     S
Er104     Ti125    10.0   .     S
Er105     B106    10.0   .     S
Er105     H114    10.0   .     S
Er105     Ti115    10.0   .     S
B106     Be111    9.999   .     S
B106     Li107    10.0   .     S
B106     B108    10.0   .     S
Li107     Be111    10.0   .     S
Li107     Li109    10.0   .     S
Li107     H112    10.0   .     S
B108     Be110    9.999   .     S
B108     Li109    10.0   .     S
Li109     Be110    10.0   .     S
Be110     Be111    10.0   .     S
Be111     V142    10.0   .     S
H112     Ti113    10.0   .     S
H114     Ti115    10.0   .     S
H114     Li119    10.0   .     S
Ti115     S141    10.0   .     S
Er116     B120    10.0   .     S
Er117     B118    10.0   .     S
B118     Be123    9.999   .     S
B118     Li119    10.0   .     S
B118     B120    10.0   .     S
Li119     Be123    10.0   .     S
Li119     Li121    10.0   .     S
B120     Be122    9.999   .     S
B120     Li121    10.0   .     S
Li121     Be122    10.0   .     S
Li121     H124    10.0   .     S
Be122     Be123    10.0   .     S
H124     Ti125    10.0   .     S
Ti125     S140    10.0   .     S
H126     Ti127    10.0   .     S
H126     Li133    10.0   .     S
Ti127     S139    10.0   .     S
Er128     B132    10.0   .     S
Er129     B130    10.0   .     S
B130     Be135    9.999   1_545     S
B130     Li131    10.0   1_545     S
B130     B132    10.0   .     S
Li131     B130    10.0   1_565     S
Li131     Be135    10.0   .     S
Li131     Li133    10.0   .     S
Li131     H136    10.0   .     S
B132     Be134    9.999   1_545     S
B132     Li133    10.0   1_545     S
Li133     B132    10.0   1_565     S
Li133     Be134    10.0   .     S
Be134     B132    9.999   1_565     S
Be134     Be135    10.0   .     S
Be135     B130    9.999   1_565     S
H136     Ti137    10.0   .     S
Ti137     S138    10.0   .     S
S138     S139    10.0   1_556     S
S138     S140    10.0   .     S
S139     S138    10.0   1_554     S
S139     S141    10.0   .     S
S140     S141    10.0   1_556     S
S141     S140    10.0   1_554     S
V142     He144    10.0   .     S
V142     V143    10.001   .     S
V143     He144    10.0   .     S
