data_wys
_audit_creation_date              2020-02-02
_audit_creation_method            'Pymatgen'
_symmetry_space_group_name_H-M    'P1'
_symmetry_Int_Tables_number       1
loop_
_symmetry_equiv_pos_as_xyz
  x,y,z
_cell_length_a                    24.9816
_cell_length_b                    24.9816
_cell_length_c                    19.3934
_cell_angle_alpha                 90.0
_cell_angle_beta                 90.0
_cell_angle_gamma                 120.0
loop_
_atom_site_label
_atom_site_type_symbol
_atom_site_fract_x
_atom_site_fract_y
_atom_site_fract_z
Er1     Er     0.933   0.2664   0.6667
Er2     Er     0.0   0.4003   0.0
Er3     Er     0.067   0.3333   0.3333
Er4     Er     0.6667   0.7336   0.3333
Er5     Er     0.7336   0.6667   0.6667
Er6     Er     0.5997   0.5997   0.0
V7     V     0.0   0.0   0.0
Er8     Er     0.2664   0.933   0.3333
Er9     Er     0.3333   0.067   0.6667
Er10     Er     0.4003   0.0   0.0
V11     V     0.6667   0.3333   0.3333
V12     V     0.3333   0.6667   0.6667
loop_
_geom_bond_atom_site_label_1
_geom_bond_atom_site_label_2
_geom_bond_distance
_geom_bond_site_symmetry_2
_ccdc_geom_bond_type
Er1     V12    10.0   1_655     S
Er1     V7    10.0   1_656     S
Er1     V11    10.0   .     S
Er2     V12    10.0   1_554     S
Er2     V7    10.0   .     S
Er2     V11    10.0   1_455     S
Er3     V12    10.0   .     S
Er3     V7    10.0   .     S
Er3     V11    10.0   1_455     S
Er4     V11    10.0   .     S
Er4     V12    10.0   .     S
Er4     V7    10.0   1_665     S
Er5     V11    10.0   .     S
Er5     V12    10.0   .     S
Er5     V7    10.0   1_666     S
Er6     V11    10.0   .     S
Er6     V12    10.0   1_554     S
Er6     V7    10.0   1_665     S
V7     Er1    10.0   1_454     S
V7     Er6    10.0   1_445     S
V7     Er5    10.0   1_444     S
V7     Er4    10.0   1_445     S
V7     Er10    10.0   .     S
V7     Er9    10.0   1_554     S
V7     Er8    10.0   1_545     S
Er8     V11    10.0   1_565     S
Er8     V12    10.0   .     S
Er8     V7    10.0   1_565     S
Er9     V11    10.0   .     S
Er9     V12    10.0   1_545     S
Er9     V7    10.0   1_556     S
Er10     V11    10.0   .     S
Er10     V12    10.0   1_544     S
V11     Er3    10.0   1_655     S
V11     Er2    10.0   1_655     S
V11     Er8    10.0   1_545     S
V12     Er1    10.0   1_455     S
V12     Er2    10.0   1_556     S
V12     Er6    10.0   1_556     S
V12     Er9    10.0   1_565     S
V12     Er10    10.0   1_566     S
