data_wysa
_audit_creation_date              2020-02-02
_audit_creation_method            'Pymatgen'
_symmetry_space_group_name_H-M    'P1'
_symmetry_Int_Tables_number       1
loop_
_symmetry_equiv_pos_as_xyz
  x,y,z
_cell_length_a                    61.5039
_cell_length_b                    61.5039
_cell_length_c                    53.5789
_cell_angle_alpha                 90.0
_cell_angle_beta                 90.0
_cell_angle_gamma                 120.0
loop_
_atom_site_label
_atom_site_type_symbol
_atom_site_fract_x
_atom_site_fract_y
_atom_site_fract_z
Ti1     Ti     0.0368   0.3702   0.1667
Ce2     Ce     0.8567   0.2691   0.1162
Ce3     Ce     0.9358   0.19   0.2171
Er4     Er     0.1993   0.5327   0.1667
Ti5     Ti     0.6298   0.6667   0.1667
Ce6     Ce     0.8099   0.7457   0.2171
Ce7     Ce     0.7309   0.5876   0.1162
Er8     Er     0.4673   0.6667   0.1667
Ti9     Ti     0.3333   0.9632   0.1667
Ce10     Ce     0.2543   0.0642   0.2171
Ce11     Ce     0.4124   0.1433   0.1162
Er12     Er     0.3333   0.8007   0.1667
V13     V     0.3528   0.7687   0.346
V14     V     0.2313   0.584   0.346
V15     V     0.416   0.6472   0.346
V16     V     0.3139   0.7493   0.9873
V17     V     0.4354   0.6861   0.9873
V18     V     0.2507   0.5646   0.9873
V19     V     0.9174   0.898   0.3206
V20     V     0.102   0.0194   0.3206
V21     V     0.9806   0.0826   0.3206
Ti22     Ti     0.7035   0.7035   0.5
Ce23     Ce     0.5234   0.6024   0.4495
Ce24     Ce     0.6024   0.5234   0.5505
Er25     Er     0.866   0.866   0.5
Ti26     Ti     0.0   0.2965   0.5
Ce27     Ce     0.921   0.3976   0.5505
Ce28     Ce     0.079   0.4766   0.4495
Er29     Er     0.0   0.134   0.5
V30     V     0.0194   0.102   0.6794
V31     V     0.0826   0.9806   0.6794
V32     V     0.898   0.9174   0.6794
Ti33     Ti     0.2965   0.0   0.5
Ce34     Ce     0.3976   0.921   0.4495
Ce35     Ce     0.4766   0.079   0.5505
Er36     Er     0.134   0.0   0.5
Ti37     Ti     0.9632   0.3333   0.8333
Ce38     Ce     0.0642   0.2543   0.7829
Ce39     Ce     0.1433   0.4124   0.8838
Er40     Er     0.8007   0.3333   0.8333
V41     V     0.7493   0.3139   0.0127
V42     V     0.5646   0.2507   0.0127
V43     V     0.6861   0.4354   0.0127
Ti44     Ti     0.6667   0.6298   0.8333
Ce45     Ce     0.7457   0.8099   0.7829
Ce46     Ce     0.5876   0.7309   0.8838
Er47     Er     0.6667   0.4673   0.8333
V48     V     0.7687   0.3528   0.654
V49     V     0.6472   0.416   0.654
V50     V     0.584   0.2313   0.654
Ti51     Ti     0.3702   0.0368   0.8333
Ce52     Ce     0.2691   0.8567   0.8838
Ce53     Ce     0.19   0.9358   0.7829
Er54     Er     0.5327   0.1993   0.8333
loop_
_geom_bond_atom_site_label_1
_geom_bond_atom_site_label_2
_geom_bond_distance
_geom_bond_site_symmetry_2
_ccdc_geom_bond_type
Ti1     Ce2    9.99   1_455     S
Ti1     Ce3    9.99   1_455     S
Ti1     Er4    9.994   .     S
Ce2     Ce3    10.007   .     S
Ce2     Ti1    9.99   1_655     S
Ce2     V41    10.011   .     S
Ce3     Ti1    9.99   1_655     S
Ce3     V21    10.011   .     S
Er4     V14    9.999   .     S
Er4     V18    9.999   1_554     S
Ti5     Ce6    9.99   .     S
Ti5     Ce7    9.99   .     S
Ti5     Er8    9.994   .     S
Ce6     Ce7    10.007   .     S
Ce6     V19    10.011   .     S
Ce7     V43    10.011   .     S
Er8     V15    9.999   .     S
Er8     V17    9.999   1_554     S
Ti9     Ce10    9.99   1_565     S
Ti9     Ce11    9.99   1_565     S
Ti9     Er12    9.994   .     S
Ce10     Ce11    10.007   .     S
Ce10     Ti9    9.99   1_545     S
Ce10     V20    10.011   .     S
Ce11     Ti9    9.99   1_545     S
Ce11     V42    10.011   .     S
Er12     V13    9.999   .     S
Er12     V16    9.999   1_554     S
V13     V15    9.999   .     S
V13     V14    9.999   .     S
V13     Ce34    10.011   .     S
V14     V15    9.999   .     S
V14     Ce28    10.011   .     S
V15     Ce23    10.011   .     S
V16     Er12    9.999   1_556     S
V16     V18    9.999   .     S
V16     V17    9.999   .     S
V16     Ce52    10.011   .     S
V17     Er8    9.999   1_556     S
V17     V18    9.999   .     S
V17     Ce46    10.011   .     S
V18     Er4    9.999   1_556     S
V18     Ce39    10.011   .     S
V19     V20    9.999   1_665     S
V19     V21    9.999   1_565     S
V19     Er25    9.999   .     S
V20     V19    9.999   1_445     S
V20     V21    9.999   1_455     S
V20     Er36    9.999   .     S
V21     V20    9.999   1_655     S
V21     V19    9.999   1_545     S
V21     Er29    9.999   1_655     S
Ti22     Ce24    9.99   .     S
Ti22     Ce23    9.99   .     S
Ti22     Er25    9.994   .     S
Ce23     Ce24    10.007   .     S
Ce24     V49    10.011   .     S
Er25     V32    9.999   .     S
Ti26     Ce28    9.99   .     S
Ti26     Ce27    9.99   1_455     S
Ti26     Er29    9.994   .     S
Ce27     Ce28    10.007   1_655     S
Ce27     Ti26    9.99   1_655     S
Ce27     V48    10.011   .     S
Ce28     Ce27    10.007   1_455     S
Er29     V30    9.999   .     S
Er29     V21    9.999   1_455     S
V30     V31    9.999   1_545     S
V30     V32    9.999   1_445     S
V30     Ce38    10.011   .     S
V31     V30    9.999   1_565     S
V31     V32    9.999   1_455     S
V31     Er36    9.999   1_565     S
V31     Ce53    10.011   .     S
V32     V31    9.999   1_655     S
V32     V30    9.999   1_665     S
V32     Ce45    10.011   .     S
Ti33     Ce35    9.99   .     S
Ti33     Ce34    9.99   1_545     S
Ti33     Er36    9.994   .     S
Ce34     Ce35    10.007   1_565     S
Ce34     Ti33    9.99   1_565     S
Ce35     Ce34    10.007   1_545     S
Ce35     V50    10.011   .     S
Er36     V31    9.999   1_545     S
Ti37     Ce38    9.99   1_655     S
Ti37     Ce39    9.99   1_655     S
Ti37     Er40    9.994   .     S
Ce38     Ce39    10.007   .     S
Ce38     Ti37    9.99   1_455     S
Ce39     Ti37    9.99   1_455     S
Er40     V41    9.999   1_556     S
Er40     V48    9.999   .     S
V41     Er40    9.999   1_554     S
V41     V42    9.999   .     S
V41     V43    9.999   .     S
V42     V43    9.999   .     S
V42     Er54    9.999   1_554     S
V43     Er47    9.999   1_554     S
Ti44     Ce45    9.99   .     S
Ti44     Ce46    9.99   .     S
Ti44     Er47    9.994   .     S
Ce45     Ce46    10.007   .     S
Er47     V43    9.999   1_556     S
Er47     V49    9.999   .     S
V48     V49    9.999   .     S
V48     V50    9.999   .     S
V49     V50    9.999   .     S
V50     Er54    9.999   .     S
Ti51     Ce53    9.99   1_545     S
Ti51     Ce52    9.99   1_545     S
Ti51     Er54    9.994   .     S
Ce52     Ce53    10.007   .     S
Ce52     Ti51    9.99   1_565     S
Ce53     Ti51    9.99   1_565     S
Er54     V42    9.999   1_556     S
