data_wyta
_audit_creation_date              2020-02-02
_audit_creation_method            'Pymatgen'
_symmetry_space_group_name_H-M    'P1'
_symmetry_Int_Tables_number       1
loop_
_symmetry_equiv_pos_as_xyz
  x,y,z
_cell_length_a                    48.109
_cell_length_b                    48.109
_cell_length_c                    88.7733
_cell_angle_alpha                 90.0
_cell_angle_beta                 90.0
_cell_angle_gamma                 120.0
loop_
_atom_site_label
_atom_site_type_symbol
_atom_site_fract_x
_atom_site_fract_y
_atom_site_fract_z
Ti1     Ti     0.5583   0.1166   0.4238
Ce2     Ce     0.6236   0.0393   0.3333
Ce3     Ce     0.4157   0.0393   0.3333
Ti4     Ti     0.8834   0.4417   0.4238
Ce5     Ce     0.9607   0.5843   0.3333
Ce6     Ce     0.9607   0.3764   0.3333
V7     V     0.4588   0.3334   0.6223
V8     V     0.6666   0.5412   0.6223
V9     V     0.8746   0.3334   0.6223
V10     V     0.8746   0.5412   0.6223
Er11     Er     0.5974   0.4026   0.5304
Er12     Er     0.8051   0.4026   0.5304
Er13     Er     0.5974   0.1949   0.5304
V14     V     0.4588   0.1254   0.6223
V15     V     0.6666   0.1254   0.6223
Ti16     Ti     0.5583   0.4417   0.4238
Ce17     Ce     0.6236   0.5843   0.3333
Ce18     Ce     0.4157   0.3764   0.3333
Ti19     Ti     0.225   0.4499   0.7572
Ce20     Ce     0.2902   0.3726   0.6667
Ce21     Ce     0.0824   0.3726   0.6667
Ti22     Ti     0.225   0.775   0.7572
Ce23     Ce     0.2902   0.9176   0.6667
Ce24     Ce     0.0824   0.7098   0.6667
V25     V     0.5412   0.6667   0.9556
V26     V     0.5412   0.8745   0.9556
V27     V     0.3333   0.8745   0.9556
V28     V     0.1255   0.6667   0.9556
Er29     Er     0.4718   0.7359   0.8637
Er30     Er     0.2641   0.5282   0.8637
Er31     Er     0.2641   0.7359   0.8637
V32     V     0.1255   0.4588   0.9556
V33     V     0.3333   0.4588   0.9556
Ti34     Ti     0.5501   0.775   0.7572
Ce35     Ce     0.6274   0.9176   0.6667
Ce36     Ce     0.6274   0.7098   0.6667
Ti37     Ti     0.8916   0.7832   0.0905
Ce38     Ce     0.749   0.7059   0.0
Ce39     Ce     0.9569   0.7059   0.0
Ti40     Ti     0.2168   0.1084   0.0905
Ce41     Ce     0.2941   0.0431   0.0
Ce42     Ce     0.2941   0.251   0.0
V43     V     0.7922   0.0   0.289
V44     V     1.0   0.2078   0.289
V45     V     0.2079   0.0   0.289
V46     V     0.2079   0.2078   0.289
Er47     Er     0.1385   0.0692   0.197
Er48     Er     0.9308   0.0692   0.197
Er49     Er     0.9308   0.8615   0.197
V50     V     0.7922   0.7921   0.289
V51     V     1.0   0.7921   0.289
Ti52     Ti     0.8916   0.1084   0.0905
Ce53     Ce     0.749   0.0431   0.0
Ce54     Ce     0.9569   0.251   0.0
loop_
_geom_bond_atom_site_label_1
_geom_bond_atom_site_label_2
_geom_bond_distance
_geom_bond_site_symmetry_2
_ccdc_geom_bond_type
Ti1     Ce2    9.997   .     S
Ti1     Ce3    9.997   .     S
Ti1     Er13    10.005   .     S
Ce2     Ce3    10.0   .     S
Ce2     V43    10.008   .     S
Ce3     V45    10.008   .     S
Ti4     Ce6    9.997   .     S
Ti4     Ce5    9.997   .     S
Ti4     Er12    10.005   .     S
Ce5     Ce6    10.0   .     S
Ce5     V51    10.008   .     S
Ce6     V44    10.008   .     S
V7     Er11    9.996   .     S
V7     V8    9.997   .     S
V7     V14    10.004   .     S
V7     Ce20    10.008   .     S
V8     Er11    9.996   .     S
V8     V10    10.004   .     S
V8     Ce36    10.008   .     S
V9     Er12    9.996   .     S
V9     V10    9.997   .     S
V9     V15    10.004   .     S
V9     Ce21    10.008   1_655     S
V10     Er12    9.996   .     S
V10     Ce24    10.008   1_655     S
Er11     Er12    9.992   .     S
Er11     Er13    9.993   .     S
Er11     Ti16    10.005   .     S
Er12     Er13    9.992   .     S
Er13     V14    9.996   .     S
Er13     V15    9.996   .     S
V14     V15    9.997   .     S
V14     Ce23    10.008   1_545     S
V15     Ce35    10.008   1_545     S
Ti16     Ce17    9.997   .     S
Ti16     Ce18    9.997   .     S
Ce17     Ce18    10.0   .     S
Ce17     V50    10.008   .     S
Ce18     V46    10.008   .     S
Ti19     Ce21    9.997   .     S
Ti19     Ce20    9.997   .     S
Ti19     Er30    10.005   .     S
Ce20     Ce21    10.0   .     S
Ce21     V9    10.008   1_455     S
Ti22     Ce24    9.997   .     S
Ti22     Ce23    9.997   .     S
Ti22     Er31    10.005   .     S
Ce23     Ce24    10.0   .     S
Ce23     V14    10.008   1_565     S
Ce24     V10    10.008   1_455     S
V25     Er29    9.996   .     S
V25     V26    9.997   .     S
V25     V33    10.004   .     S
V25     Ce38    10.008   1_556     S
V26     Er29    9.996   .     S
V26     V27    10.004   .     S
V26     Ce53    10.008   1_566     S
V27     V28    9.997   .     S
V27     Er31    9.996   .     S
V27     Ce41    10.008   1_566     S
V28     Er31    9.996   .     S
V28     V32    10.004   .     S
V28     Ce39    10.008   1_456     S
Er29     Er30    9.992   .     S
Er29     Er31    9.992   .     S
Er29     Ti34    10.005   .     S
Er30     Er31    9.992   .     S
Er30     V33    9.996   .     S
Er30     V32    9.996   .     S
V32     V33    9.997   .     S
V32     Ce54    10.008   1_456     S
V33     Ce42    10.008   1_556     S
Ti34     Ce36    9.997   .     S
Ti34     Ce35    9.997   .     S
Ce35     Ce36    10.0   .     S
Ce35     V15    10.008   1_565     S
Ti37     Ce39    9.997   .     S
Ti37     Ce38    9.997   .     S
Ti37     Er49    10.005   .     S
Ce38     Ce39    10.0   .     S
Ce38     V25    10.008   1_554     S
Ce39     V28    10.008   1_654     S
Ti40     Ce41    9.997   .     S
Ti40     Ce42    9.997   .     S
Ti40     Er47    10.005   .     S
Ce41     Ce42    10.0   .     S
Ce41     V27    10.008   1_544     S
Ce42     V33    10.008   1_554     S
V43     V44    9.997   .     S
V43     Er48    9.996   .     S
V43     V50    10.004   1_545     S
V44     Er48    9.996   .     S
V44     V46    10.004   1_655     S
V45     Er47    9.996   .     S
V45     V46    9.997   .     S
V45     V51    10.004   1_445     S
V46     Er47    9.996   .     S
V46     V44    10.004   1_455     S
Er47     Er48    9.992   1_455     S
Er47     Er49    9.992   1_445     S
Er48     Er47    9.992   1_655     S
Er48     Er49    9.993   1_545     S
Er48     Ti52    10.005   .     S
Er49     Er48    9.993   1_565     S
Er49     Er47    9.992   1_665     S
Er49     V51    9.996   .     S
Er49     V50    9.996   .     S
V50     V51    9.997   .     S
V50     V43    10.004   1_565     S
V51     V45    10.004   1_665     S
Ti52     Ce54    9.997   .     S
Ti52     Ce53    9.997   .     S
Ce53     Ce54    10.0   .     S
Ce53     V26    10.008   1_544     S
Ce54     V32    10.008   1_654     S
