data_wzz
_audit_creation_date              2020-02-02
_audit_creation_method            'Pymatgen'
_symmetry_space_group_name_H-M    'P1'
_symmetry_Int_Tables_number       1
loop_
_symmetry_equiv_pos_as_xyz
  x,y,z
_cell_length_a                    21.6581
_cell_length_b                    21.6581
_cell_length_c                    21.6581
_cell_angle_alpha                 90.0
_cell_angle_beta                 90.0
_cell_angle_gamma                 90.0
loop_
_atom_site_label
_atom_site_type_symbol
_atom_site_fract_x
_atom_site_fract_y
_atom_site_fract_z
Er1     Er     0.75   0.75   0.25
Er2     Er     0.75   0.25   0.25
Er3     Er     0.75   0.25   0.75
Er4     Er     0.25   0.75   0.25
Er5     Er     0.25   0.25   0.75
Er6     Er     0.25   0.75   0.75
V7     V     0.0   0.5   0.5
Er8     Er     0.75   0.75   0.75
V9     V     0.5   0.0   0.5
V10     V     0.5   0.5   0.0
Er11     Er     0.25   0.25   0.25
V12     V     0.0   0.0   0.0
Ti13     Ti     0.0   0.0   0.5
Ti14     Ti     0.5   0.0   0.0
Ti15     Ti     0.0   0.5   0.0
Ti16     Ti     0.5   0.5   0.5
loop_
_geom_bond_atom_site_label_1
_geom_bond_atom_site_label_2
_geom_bond_distance
_geom_bond_site_symmetry_2
_ccdc_geom_bond_type
Er1     V10    9.378   .     S
Er1     V9    9.378   1_565     S
Er1     V7    9.378   1_655     S
Er1     V12    9.378   1_665     S
Er2     V9    9.378   .     S
Er2     V10    9.378   .     S
Er2     V7    9.378   1_655     S
Er2     V12    9.378   1_655     S
Er3     V9    9.378   .     S
Er3     V10    9.378   1_556     S
Er3     V7    9.378   1_655     S
Er3     V12    9.378   1_656     S
Er4     V7    9.378   .     S
Er4     V10    9.378   .     S
Er4     V9    9.378   1_565     S
Er4     V12    9.378   1_565     S
Er5     V7    9.378   .     S
Er5     V9    9.378   .     S
Er5     V10    9.378   1_556     S
Er5     V12    9.378   1_556     S
Er6     V10    9.378   1_556     S
Er6     V9    9.378   1_565     S
Er6     V7    9.378   .     S
Er6     V12    9.378   1_566     S
V7     Ti15    10.829   1_556     S
V7     Ti13    10.829   1_565     S
V7     Ti15    10.829   .     S
V7     Ti13    10.829   .     S
V7     Ti16    10.829   .     S
V7     Ti16    10.829   1_455     S
V7     Er8    9.378   1_455     S
V7     Er3    9.378   1_455     S
V7     Er1    9.378   1_455     S
V7     Er2    9.378   1_455     S
V7     Er11    9.378   .     S
Er8     V10    9.378   1_556     S
Er8     V9    9.378   1_565     S
Er8     V7    9.378   1_655     S
Er8     V12    9.378   1_666     S
V9     Ti14    10.829   1_556     S
V9     Ti13    10.829   1_655     S
V9     Ti14    10.829   .     S
V9     Ti13    10.829   .     S
V9     Ti16    10.829   .     S
V9     Ti16    10.829   1_545     S
V9     Er6    9.378   1_545     S
V9     Er8    9.378   1_545     S
V9     Er1    9.378   1_545     S
V9     Er4    9.378   1_545     S
V9     Er11    9.378   .     S
V10     Ti14    10.829   1_565     S
V10     Ti15    10.829   1_655     S
V10     Ti15    10.829   .     S
V10     Ti14    10.829   .     S
V10     Ti16    10.829   .     S
V10     Ti16    10.829   1_554     S
V10     Er8    9.378   1_554     S
V10     Er3    9.378   1_554     S
V10     Er6    9.378   1_554     S
V10     Er5    9.378   1_554     S
V10     Er11    9.378   .     S
Er11     V12    9.378   .     S
V12     Ti13    10.829   .     S
V12     Ti14    10.829   .     S
V12     Ti15    10.829   .     S
V12     Ti13    10.829   1_554     S
V12     Ti14    10.829   1_455     S
V12     Ti15    10.829   1_545     S
V12     Er8    9.378   1_444     S
V12     Er1    9.378   1_445     S
V12     Er6    9.378   1_544     S
V12     Er3    9.378   1_454     S
V12     Er2    9.378   1_455     S
V12     Er4    9.378   1_545     S
V12     Er5    9.378   1_554     S
Ti13     V9    10.829   1_455     S
Ti13     V7    10.829   1_545     S
Ti13     V12    10.829   1_556     S
Ti14     V10    10.829   1_545     S
Ti14     V9    10.829   1_554     S
Ti14     V12    10.829   1_655     S
Ti15     V10    10.829   1_455     S
Ti15     V7    10.829   1_554     S
Ti15     V12    10.829   1_565     S
Ti16     V7    10.829   1_655     S
Ti16     V9    10.829   1_565     S
Ti16     V10    10.829   1_556     S
