data_wzza
_audit_creation_date              2020-02-02
_audit_creation_method            'Pymatgen'
_symmetry_space_group_name_H-M    'P1'
_symmetry_Int_Tables_number       1
loop_
_symmetry_equiv_pos_as_xyz
  x,y,z
_cell_length_a                    58.1665
_cell_length_b                    58.1665
_cell_length_c                    58.1665
_cell_angle_alpha                 90.0
_cell_angle_beta                 90.0
_cell_angle_gamma                 90.0
loop_
_atom_site_label
_atom_site_type_symbol
_atom_site_fract_x
_atom_site_fract_y
_atom_site_fract_z
Ce1     Ce     0.5   0.5   0.1216
Ce2     Ce     0.3784   0.5   0.0
Ce3     Ce     0.5   0.3784   0.0
Ce4     Ce     0.5   0.5   0.8784
Ce5     Ce     0.6216   0.5   0.0
Ce6     Ce     0.5   0.6216   0.0
Ce7     Ce     0.5   0.1216   0.5
Ce8     Ce     0.5   0.8784   0.5
Ce9     Ce     0.5   0.0   0.3784
Ce10     Ce     0.3784   0.0   0.5
Ce11     Ce     0.6216   0.0   0.5
Ce12     Ce     0.5   0.0   0.6216
Ce13     Ce     0.1216   0.5   0.5
Ce14     Ce     0.8784   0.5   0.5
Ce15     Ce     0.0   0.5   0.3784
Ce16     Ce     0.0   0.3784   0.5
Ce17     Ce     0.0   0.6216   0.5
Ce18     Ce     0.0   0.5   0.6216
Ce19     Ce     0.1216   0.0   0.0
Ce20     Ce     0.0   0.0   0.1216
Ce21     Ce     0.0   0.1216   0.0
Ce22     Ce     0.8784   0.0   0.0
Ce23     Ce     0.0   0.8784   0.0
Ce24     Ce     0.0   0.0   0.8784
Er25     Er     0.5   0.5   0.7055
Er26     Er     0.5   0.7055   0.5
V27     V     0.5902   0.5902   0.5902
V28     V     0.5902   0.9098   0.9098
V29     V     0.9098   0.5902   0.9098
Ti30     Ti     0.6894   0.8106   0.8106
Ti31     Ti     0.8106   0.6894   0.8106
Ti32     Ti     0.8106   0.8106   0.6894
Ti33     Ti     0.6894   0.6894   0.6894
V34     V     0.9098   0.9098   0.5902
Er35     Er     0.7055   0.5   0.5
Er36     Er     0.0   0.0   0.7055
Er37     Er     0.7055   0.0   0.0
Er38     Er     0.0   0.7055   0.0
Er39     Er     0.5   0.7945   0.0
Er40     Er     0.7945   0.5   0.0
Er41     Er     0.5   0.0   0.7945
Er42     Er     0.7945   0.0   0.5
Er43     Er     0.0   0.5   0.7945
Er44     Er     0.0   0.7945   0.5
V45     V     0.0902   0.4098   0.0902
V46     V     0.4098   0.0902   0.0902
V47     V     0.0902   0.0902   0.4098
Ti48     Ti     0.1894   0.3106   0.1894
Ti49     Ti     0.3106   0.1894   0.1894
Ti50     Ti     0.1894   0.1894   0.3106
Ti51     Ti     0.3106   0.3106   0.3106
V52     V     0.4098   0.4098   0.4098
V53     V     0.9098   0.5902   0.0902
V54     V     0.5902   0.9098   0.0902
V55     V     0.9098   0.9098   0.4098
Ti56     Ti     0.6894   0.8106   0.1894
Ti57     Ti     0.8106   0.8106   0.3106
Ti58     Ti     0.8106   0.6894   0.1894
Ti59     Ti     0.6894   0.6894   0.3106
V60     V     0.5902   0.5902   0.4098
Er61     Er     0.2055   0.5   0.0
Er62     Er     0.5   0.2055   0.0
Er63     Er     0.5   0.0   0.2055
Er64     Er     0.2055   0.0   0.5
V65     V     0.5902   0.0902   0.9098
V66     V     0.9098   0.0902   0.5902
V67     V     0.9098   0.4098   0.9098
Ti68     Ti     0.6894   0.1894   0.8106
Ti69     Ti     0.8106   0.1894   0.6894
Ti70     Ti     0.8106   0.3106   0.8106
Ti71     Ti     0.6894   0.3106   0.6894
V72     V     0.5902   0.4098   0.5902
Er73     Er     0.0   0.5   0.2055
V74     V     0.0902   0.5902   0.9098
V75     V     0.0902   0.9098   0.5902
V76     V     0.4098   0.9098   0.9098
Ti77     Ti     0.3106   0.8106   0.8106
Ti78     Ti     0.1894   0.8106   0.6894
Ti79     Ti     0.1894   0.6894   0.8106
Ti80     Ti     0.3106   0.6894   0.6894
V81     V     0.4098   0.5902   0.5902
Er82     Er     0.0   0.2055   0.5
Er83     Er     0.0   0.0   0.2945
V84     V     0.5902   0.0902   0.0902
V85     V     0.9098   0.0902   0.4098
V86     V     0.9098   0.4098   0.0902
Ti87     Ti     0.8106   0.1894   0.3106
Ti88     Ti     0.8106   0.3106   0.1894
Ti89     Ti     0.6894   0.1894   0.1894
Ti90     Ti     0.6894   0.3106   0.3106
V91     V     0.5902   0.4098   0.4098
Er92     Er     0.0   0.2945   0.0
V93     V     0.0902   0.5902   0.0902
V94     V     0.0902   0.9098   0.4098
V95     V     0.4098   0.9098   0.0902
Ti96     Ti     0.1894   0.8106   0.3106
Ti97     Ti     0.3106   0.8106   0.1894
Ti98     Ti     0.1894   0.6894   0.1894
Ti99     Ti     0.3106   0.6894   0.3106
V100     V     0.4098   0.5902   0.4098
V101     V     0.0902   0.0902   0.5902
V102     V     0.0902   0.4098   0.9098
V103     V     0.4098   0.0902   0.9098
Ti104     Ti     0.1894   0.3106   0.8106
Ti105     Ti     0.3106   0.1894   0.8106
Ti106     Ti     0.1894   0.1894   0.6894
Ti107     Ti     0.3106   0.3106   0.6894
V108     V     0.4098   0.4098   0.5902
Er109     Er     0.2945   0.0   0.0
Er110     Er     0.2945   0.5   0.5
Er111     Er     0.5   0.2945   0.5
Er112     Er     0.5   0.5   0.2945
loop_
_geom_bond_atom_site_label_1
_geom_bond_atom_site_label_2
_geom_bond_distance
_geom_bond_site_symmetry_2
_ccdc_geom_bond_type
Ce1     Ce3    10.0   .     S
Ce1     Ce5    10.0   .     S
Ce1     Ce6    10.0   .     S
Ce1     Ce2    10.0   .     S
Ce1     Er112    10.06   .     S
Ce2     Ce6    10.0   .     S
Ce2     Ce4    10.0   1_554     S
Ce2     Ce3    10.0   .     S
Ce2     Er61    10.06   .     S
Ce3     Ce5    10.0   .     S
Ce3     Ce4    10.0   1_554     S
Ce3     Er62    10.06   .     S
Ce4     Ce5    10.0   1_556     S
Ce4     Ce6    10.0   1_556     S
Ce4     Ce2    10.0   1_556     S
Ce4     Ce3    10.0   1_556     S
Ce4     Er25    10.06   .     S
Ce5     Ce4    10.0   1_554     S
Ce5     Ce6    10.0   .     S
Ce5     Er40    10.06   .     S
Ce6     Ce4    10.0   1_554     S
Ce6     Er39    10.06   .     S
Ce7     Ce10    10.0   .     S
Ce7     Ce9    10.0   .     S
Ce7     Ce12    10.0   .     S
Ce7     Ce11    10.0   .     S
Ce7     Er111    10.06   .     S
Ce8     Ce12    10.0   1_565     S
Ce8     Ce11    10.0   1_565     S
Ce8     Ce9    10.0   1_565     S
Ce8     Ce10    10.0   1_565     S
Ce8     Er26    10.06   .     S
Ce9     Ce11    10.0   .     S
Ce9     Ce8    10.0   1_545     S
Ce9     Ce10    10.0   .     S
Ce9     Er63    10.06   .     S
Ce10     Ce12    10.0   .     S
Ce10     Ce8    10.0   1_545     S
Ce10     Er64    10.06   .     S
Ce11     Ce8    10.0   1_545     S
Ce11     Ce12    10.0   .     S
Ce11     Er42    10.06   .     S
Ce12     Ce8    10.0   1_545     S
Ce12     Er41    10.06   .     S
Ce13     Ce16    10.0   .     S
Ce13     Ce15    10.0   .     S
Ce13     Ce18    10.0   .     S
Ce13     Ce17    10.0   .     S
Ce13     Er110    10.06   .     S
Ce14     Ce18    10.0   1_655     S
Ce14     Ce17    10.0   1_655     S
Ce14     Ce15    10.0   1_655     S
Ce14     Ce16    10.0   1_655     S
Ce14     Er35    10.06   .     S
Ce15     Ce17    10.0   .     S
Ce15     Ce14    10.0   1_455     S
Ce15     Ce16    10.0   .     S
Ce15     Er73    10.06   .     S
Ce16     Ce18    10.0   .     S
Ce16     Ce14    10.0   1_455     S
Ce16     Er82    10.06   .     S
Ce17     Ce14    10.0   1_455     S
Ce17     Ce18    10.0   .     S
Ce17     Er44    10.06   .     S
Ce18     Ce14    10.0   1_455     S
Ce18     Er43    10.06   .     S
Ce19     Ce20    10.0   .     S
Ce19     Ce24    10.0   1_554     S
Ce19     Ce21    10.0   .     S
Ce19     Ce23    10.0   1_545     S
Ce19     Er109    10.06   .     S
Ce20     Ce21    10.0   .     S
Ce20     Ce22    10.0   1_455     S
Ce20     Ce23    10.0   1_545     S
Ce20     Er83    10.06   .     S
Ce21     Ce24    10.0   1_554     S
Ce21     Ce22    10.0   1_455     S
Ce21     Er92    10.06   .     S
Ce22     Ce20    10.0   1_655     S
Ce22     Ce24    10.0   1_654     S
Ce22     Ce21    10.0   1_655     S
Ce22     Ce23    10.0   1_645     S
Ce22     Er37    10.06   .     S
Ce23     Ce20    10.0   1_565     S
Ce23     Ce24    10.0   1_564     S
Ce23     Ce22    10.0   1_465     S
Ce23     Ce19    10.0   1_565     S
Ce23     Er38    10.06   .     S
Ce24     Ce19    10.0   1_556     S
Ce24     Ce21    10.0   1_556     S
Ce24     Ce22    10.0   1_456     S
Ce24     Ce23    10.0   1_546     S
Ce24     Er36    10.06   .     S
Er25     V27    10.001   .     S
Er25     V72    10.001   .     S
Er25     V81    10.001   .     S
Er25     V108    10.001   .     S
Er26     V27    10.001   .     S
Er26     V100    10.001   .     S
Er26     V81    10.001   .     S
Er26     V60    10.001   .     S
V27     Ti33    9.989   .     S
V27     Er35    10.001   .     S
V28     Ti30    9.989   .     S
V28     Er37    10.001   1_566     S
V28     Er39    10.001   1_556     S
V28     Er41    10.001   1_565     S
V29     Ti31    9.989   .     S
V29     Er38    10.001   1_656     S
V29     Er40    10.001   1_556     S
V29     Er43    10.001   1_655     S
Ti30     Ti33    9.975   .     S
Ti30     Ti32    9.975   .     S
Ti30     Ti31    9.975   .     S
Ti31     Ti33    9.975   .     S
Ti31     Ti32    9.975   .     S
Ti32     V34    9.989   .     S
Ti32     Ti33    9.975   .     S
V34     Er36    10.001   1_665     S
V34     Er42    10.001   1_565     S
V34     Er44    10.001   1_655     S
Er35     V72    10.001   .     S
Er35     V60    10.001   .     S
Er35     V91    10.001   .     S
Er36     V34    10.001   1_445     S
Er36     V75    10.001   1_545     S
Er36     V66    10.001   1_455     S
Er36     V101    10.001   .     S
Er37     V28    10.001   1_544     S
Er37     V54    10.001   1_545     S
Er37     V65    10.001   1_554     S
Er37     V84    10.001   .     S
Er38     V29    10.001   1_454     S
Er38     V53    10.001   1_455     S
Er38     V74    10.001   1_554     S
Er38     V93    10.001   .     S
Er39     V28    10.001   1_554     S
Er39     V76    10.001   1_554     S
Er39     V54    10.001   .     S
Er39     V95    10.001   .     S
Er40     V67    10.001   1_554     S
Er40     V29    10.001   1_554     S
Er40     V53    10.001   .     S
Er40     V86    10.001   .     S
Er41     V76    10.001   1_545     S
Er41     V28    10.001   1_545     S
Er41     V65    10.001   .     S
Er41     V103    10.001   .     S
Er42     V55    10.001   1_545     S
Er42     V34    10.001   1_545     S
Er42     V66    10.001   .     S
Er42     V85    10.001   .     S
Er43     V67    10.001   1_455     S
Er43     V29    10.001   1_455     S
Er43     V74    10.001   .     S
Er43     V102    10.001   .     S
Er44     V34    10.001   1_455     S
Er44     V55    10.001   1_455     S
Er44     V75    10.001   .     S
Er44     V94    10.001   .     S
V45     Ti48    9.989   .     S
V45     Er92    10.001   .     S
V45     Er61    10.001   .     S
V45     Er73    10.001   .     S
V46     Ti49    9.989   .     S
V46     Er109    10.001   .     S
V46     Er62    10.001   .     S
V46     Er63    10.001   .     S
V47     Ti50    9.989   .     S
V47     Er83    10.001   .     S
V47     Er64    10.001   .     S
V47     Er82    10.001   .     S
Ti48     Ti51    9.975   .     S
Ti48     Ti50    9.975   .     S
Ti48     Ti49    9.975   .     S
Ti49     Ti51    9.975   .     S
Ti49     Ti50    9.975   .     S
Ti50     Ti51    9.975   .     S
Ti51     V52    9.989   .     S
V52     Er110    10.001   .     S
V52     Er111    10.001   .     S
V52     Er112    10.001   .     S
V53     Er38    10.001   1_655     S
V53     Ti58    9.989   .     S
V53     Er73    10.001   1_655     S
V54     Er37    10.001   1_565     S
V54     Ti56    9.989   .     S
V54     Er63    10.001   1_565     S
V55     Er42    10.001   1_565     S
V55     Er44    10.001   1_655     S
V55     Ti57    9.989   .     S
V55     Er83    10.001   1_665     S
Ti56     Ti59    9.975   .     S
Ti56     Ti57    9.975   .     S
Ti56     Ti58    9.975   .     S
Ti57     Ti59    9.975   .     S
Ti57     Ti58    9.975   .     S
Ti58     Ti59    9.975   .     S
Ti59     V60    9.989   .     S
V60     Er112    10.001   .     S
Er61     V74    10.001   1_554     S
Er61     V102    10.001   1_554     S
Er61     V93    10.001   .     S
Er62     V103    10.001   1_554     S
Er62     V65    10.001   1_554     S
Er62     V84    10.001   .     S
Er63     V54    10.001   1_545     S
Er63     V95    10.001   1_545     S
Er63     V84    10.001   .     S
Er64     V75    10.001   1_545     S
Er64     V94    10.001   1_545     S
Er64     V101    10.001   .     S
V65     Er37    10.001   1_556     S
V65     Er62    10.001   1_556     S
V65     Ti68    9.989   .     S
V66     Er36    10.001   1_655     S
V66     Ti69    9.989   .     S
V66     Er82    10.001   1_655     S
V67     Er40    10.001   1_556     S
V67     Er43    10.001   1_655     S
V67     Ti70    9.989   .     S
V67     Er92    10.001   1_656     S
Ti68     Ti71    9.975   .     S
Ti68     Ti70    9.975   .     S
Ti68     Ti69    9.975   .     S
Ti69     Ti71    9.975   .     S
Ti69     Ti70    9.975   .     S
Ti70     Ti71    9.975   .     S
Ti71     V72    9.989   .     S
V72     Er111    10.001   .     S
Er73     V53    10.001   1_455     S
Er73     V86    10.001   1_455     S
Er73     V93    10.001   .     S
V74     Er38    10.001   1_556     S
V74     Er61    10.001   1_556     S
V74     Ti79    9.989   .     S
V75     Er36    10.001   1_565     S
V75     Er64    10.001   1_565     S
V75     Ti78    9.989   .     S
V76     Er39    10.001   1_556     S
V76     Er41    10.001   1_565     S
V76     Ti77    9.989   .     S
V76     Er109    10.001   1_566     S
Ti77     Ti80    9.975   .     S
Ti77     Ti78    9.975   .     S
Ti77     Ti79    9.975   .     S
Ti78     Ti80    9.975   .     S
Ti78     Ti79    9.975   .     S
Ti79     Ti80    9.975   .     S
Ti80     V81    9.989   .     S
V81     Er110    10.001   .     S
Er82     V85    10.001   1_455     S
Er82     V66    10.001   1_455     S
Er82     V101    10.001   .     S
Er83     V55    10.001   1_445     S
Er83     V94    10.001   1_545     S
Er83     V85    10.001   1_455     S
V84     Ti89    9.989   .     S
V85     Er82    10.001   1_655     S
V85     Er83    10.001   1_655     S
V85     Ti87    9.989   .     S
V86     Er73    10.001   1_655     S
V86     Ti88    9.989   .     S
V86     Er92    10.001   1_655     S
Ti87     Ti90    9.975   .     S
Ti87     Ti89    9.975   .     S
Ti87     Ti88    9.975   .     S
Ti88     Ti90    9.975   .     S
Ti88     Ti89    9.975   .     S
Ti89     Ti90    9.975   .     S
Ti90     V91    9.989   .     S
V91     Er111    10.001   .     S
V91     Er112    10.001   .     S
Er92     V67    10.001   1_454     S
Er92     V102    10.001   1_554     S
Er92     V86    10.001   1_455     S
V93     Ti98    9.989   .     S
V94     Er64    10.001   1_565     S
V94     Er83    10.001   1_565     S
V94     Ti96    9.989   .     S
V95     Er63    10.001   1_565     S
V95     Ti97    9.989   .     S
V95     Er109    10.001   1_565     S
Ti96     Ti99    9.975   .     S
Ti96     Ti97    9.975   .     S
Ti96     Ti98    9.975   .     S
Ti97     Ti99    9.975   .     S
Ti97     Ti98    9.975   .     S
Ti98     Ti99    9.975   .     S
Ti99     V100    9.989   .     S
V100     Er110    10.001   .     S
V100     Er112    10.001   .     S
V101     Ti106    9.989   .     S
V102     Er61    10.001   1_556     S
V102     Er92    10.001   1_556     S
V102     Ti104    9.989   .     S
V103     Er62    10.001   1_556     S
V103     Ti105    9.989   .     S
V103     Er109    10.001   1_556     S
Ti104     Ti107    9.975   .     S
Ti104     Ti105    9.975   .     S
Ti104     Ti106    9.975   .     S
Ti105     Ti107    9.975   .     S
Ti105     Ti106    9.975   .     S
Ti106     Ti107    9.975   .     S
Ti107     V108    9.989   .     S
V108     Er110    10.001   .     S
V108     Er111    10.001   .     S
Er109     V76    10.001   1_544     S
Er109     V95    10.001   1_545     S
Er109     V103    10.001   1_554     S
