data_xaa
_audit_creation_date              2020-02-02
_audit_creation_method            'Pymatgen'
_symmetry_space_group_name_H-M    'P1'
_symmetry_Int_Tables_number       1
loop_
_symmetry_equiv_pos_as_xyz
  x,y,z
_cell_length_a                    63.1319
_cell_length_b                    63.1319
_cell_length_c                    63.1319
_cell_angle_alpha                 90.0
_cell_angle_beta                 90.0
_cell_angle_gamma                 90.0
loop_
_atom_site_label
_atom_site_type_symbol
_atom_site_fract_x
_atom_site_fract_y
_atom_site_fract_z
V1     V     0.6293   0.6293   0.6293
V2     V     0.3707   0.6293   0.6293
Er3     Er     0.5   0.694   0.694
Er4     Er     0.5   0.806   0.806
V5     V     0.6293   0.8707   0.8707
V6     V     0.6293   0.3707   0.6293
Er7     Er     0.694   0.5   0.694
Er8     Er     0.806   0.5   0.806
V9     V     0.8707   0.6293   0.8707
V10     V     0.6293   0.6293   0.3707
Er11     Er     0.694   0.694   0.5
Er12     Er     0.806   0.806   0.5
V13     V     0.8707   0.8707   0.6293
Er14     Er     0.194   0.306   0.0
Er15     Er     0.306   0.194   0.0
Er16     Er     0.306   0.5   0.306
Er17     Er     0.194   0.5   0.194
V18     V     0.1293   0.3707   0.1293
Er19     Er     0.5   0.306   0.306
Er20     Er     0.5   0.194   0.194
V21     V     0.3707   0.1293   0.1293
Er22     Er     0.194   0.0   0.306
Er23     Er     0.306   0.0   0.194
Er24     Er     0.0   0.194   0.306
Er25     Er     0.0   0.306   0.194
Er26     Er     0.306   0.306   0.5
Er27     Er     0.194   0.194   0.5
V28     V     0.1293   0.1293   0.3707
V29     V     0.3707   0.3707   0.3707
Er30     Er     0.806   0.694   0.0
Er31     Er     0.694   0.806   0.0
V32     V     0.1293   0.6293   0.8707
V33     V     0.6293   0.1293   0.8707
Er34     Er     0.306   0.5   0.694
Er35     Er     0.194   0.5   0.806
V36     V     0.3707   0.3707   0.6293
Er37     Er     0.5   0.306   0.694
Er38     Er     0.5   0.194   0.806
Er39     Er     0.694   0.194   0.0
Er40     Er     0.806   0.306   0.0
V41     V     0.6293   0.1293   0.1293
Er42     Er     0.694   0.0   0.194
Er43     Er     0.806   0.0   0.306
V44     V     0.6293   0.8707   0.1293
Er45     Er     0.194   0.694   0.0
Er46     Er     0.306   0.806   0.0
V47     V     0.1293   0.6293   0.1293
Er48     Er     0.0   0.694   0.194
Er49     Er     0.0   0.806   0.306
V50     V     0.8707   0.6293   0.1293
Er51     Er     0.806   0.0   0.694
Er52     Er     0.694   0.0   0.806
Er53     Er     0.0   0.806   0.694
Er54     Er     0.0   0.694   0.806
Er55     Er     0.5   0.694   0.306
Er56     Er     0.5   0.806   0.194
V57     V     0.3707   0.6293   0.3707
Er58     Er     0.306   0.694   0.5
Er59     Er     0.194   0.806   0.5
V60     V     0.1293   0.8707   0.6293
Er61     Er     0.194   0.0   0.694
Er62     Er     0.306   0.0   0.806
V63     V     0.1293   0.1293   0.6293
Er64     Er     0.0   0.194   0.694
Er65     Er     0.0   0.306   0.806
V66     V     0.8707   0.1293   0.6293
Er67     Er     0.694   0.5   0.306
Er68     Er     0.806   0.5   0.194
V69     V     0.6293   0.3707   0.3707
Er70     Er     0.694   0.306   0.5
Er71     Er     0.806   0.194   0.5
V72     V     0.8707   0.3707   0.1293
V73     V     0.3707   0.8707   0.1293
V74     V     0.8707   0.1293   0.3707
V75     V     0.1293   0.8707   0.3707
V76     V     0.1293   0.3707   0.8707
V77     V     0.3707   0.1293   0.8707
V78     V     0.8707   0.8707   0.3707
V79     V     0.8707   0.3707   0.8707
V80     V     0.3707   0.8707   0.8707
loop_
_geom_bond_atom_site_label_1
_geom_bond_atom_site_label_2
_geom_bond_distance
_geom_bond_site_symmetry_2
_ccdc_geom_bond_type
V1     Er7    10.0   .     S
V1     Er3    10.0   .     S
V1     Er11    10.0   .     S
V2     Er34    10.0   .     S
V2     Er58    10.0   .     S
V2     Er3    10.0   .     S
Er3     Er4    10.0   .     S
Er4     V80    10.0   .     S
Er4     V5    10.0   .     S
V5     Er31    10.0   1_556     S
V5     Er52    10.0   1_565     S
V6     Er70    10.0   .     S
V6     Er37    10.0   .     S
V6     Er7    10.0   .     S
Er7     Er8    10.0   .     S
Er8     V79    10.0   .     S
Er8     V9    10.0   .     S
V9     Er30    10.0   1_556     S
V9     Er54    10.0   1_655     S
V10     Er67    10.0   .     S
V10     Er55    10.0   .     S
V10     Er11    10.0   .     S
Er11     Er12    10.0   .     S
Er12     V78    10.0   .     S
Er12     V13    10.0   .     S
V13     Er51    10.0   1_565     S
V13     Er53    10.0   1_655     S
Er14     Er15    10.0   .     S
Er14     V76    10.0   1_554     S
Er14     V18    10.0   .     S
Er15     V77    10.0   1_554     S
Er15     V21    10.0   .     S
Er16     Er17    10.0   .     S
Er16     V29    10.0   .     S
Er16     V57    10.0   .     S
Er17     V18    10.0   .     S
Er17     V47    10.0   .     S
V18     Er25    10.0   .     S
Er19     Er20    10.0   .     S
Er19     V29    10.0   .     S
Er19     V69    10.0   .     S
Er20     V21    10.0   .     S
Er20     V41    10.0   .     S
V21     Er23    10.0   .     S
Er22     Er23    10.0   .     S
Er22     V75    10.0   1_545     S
Er22     V28    10.0   .     S
Er23     V73    10.0   1_545     S
Er24     Er25    10.0   .     S
Er24     V74    10.0   1_455     S
Er24     V28    10.0   .     S
Er25     V72    10.0   1_455     S
Er26     Er27    10.0   .     S
Er26     V29    10.0   .     S
Er26     V36    10.0   .     S
Er27     V28    10.0   .     S
Er27     V63    10.0   .     S
Er30     Er31    10.0   .     S
Er30     V9    10.0   1_554     S
Er30     V50    10.0   .     S
Er31     V5    10.0   1_554     S
Er31     V44    10.0   .     S
V32     Er35    10.0   .     S
V32     Er45    10.0   1_556     S
V32     Er54    10.0   .     S
V33     Er38    10.0   .     S
V33     Er39    10.0   1_556     S
V33     Er52    10.0   .     S
Er34     Er35    10.0   .     S
Er34     V36    10.0   .     S
Er35     V76    10.0   .     S
V36     Er37    10.0   .     S
Er37     Er38    10.0   .     S
Er38     V77    10.0   .     S
Er39     Er40    10.0   .     S
Er39     V33    10.0   1_554     S
Er39     V41    10.0   .     S
Er40     V79    10.0   1_554     S
Er40     V72    10.0   .     S
V41     Er42    10.0   .     S
Er42     Er43    10.0   .     S
Er42     V44    10.0   1_545     S
Er43     V78    10.0   1_545     S
Er43     V74    10.0   .     S
V44     Er42    10.0   1_565     S
V44     Er56    10.0   .     S
Er45     Er46    10.0   .     S
Er45     V32    10.0   1_554     S
Er45     V47    10.0   .     S
Er46     V80    10.0   1_554     S
Er46     V73    10.0   .     S
V47     Er48    10.0   .     S
Er48     Er49    10.0   .     S
Er48     V50    10.0   1_455     S
Er49     V78    10.0   1_455     S
Er49     V75    10.0   .     S
V50     Er48    10.0   1_655     S
V50     Er68    10.0   .     S
Er51     Er52    10.0   .     S
Er51     V13    10.0   1_545     S
Er51     V66    10.0   .     S
Er52     V5    10.0   1_545     S
Er53     Er54    10.0   .     S
Er53     V13    10.0   1_455     S
Er53     V60    10.0   .     S
Er54     V9    10.0   1_455     S
Er55     Er56    10.0   .     S
Er55     V57    10.0   .     S
Er56     V73    10.0   .     S
V57     Er58    10.0   .     S
Er58     Er59    10.0   .     S
Er59     V75    10.0   .     S
Er59     V60    10.0   .     S
V60     Er61    10.0   1_565     S
Er61     Er62    10.0   .     S
Er61     V60    10.0   1_545     S
Er61     V63    10.0   .     S
Er62     V80    10.0   1_545     S
Er62     V77    10.0   .     S
V63     Er64    10.0   .     S
Er64     Er65    10.0   .     S
Er64     V66    10.0   1_455     S
Er65     V79    10.0   1_455     S
Er65     V76    10.0   .     S
V66     Er64    10.0   1_655     S
V66     Er71    10.0   .     S
Er67     Er68    10.0   .     S
Er67     V69    10.0   .     S
Er68     V72    10.0   .     S
V69     Er70    10.0   .     S
Er70     Er71    10.0   .     S
Er71     V74    10.0   .     S
V72     Er25    10.0   1_655     S
V73     Er23    10.0   1_565     S
V74     Er24    10.0   1_655     S
V75     Er22    10.0   1_565     S
V76     Er14    10.0   1_556     S
V77     Er15    10.0   1_556     S
V78     Er43    10.0   1_565     S
V78     Er49    10.0   1_655     S
V79     Er40    10.0   1_556     S
V79     Er65    10.0   1_655     S
V80     Er46    10.0   1_556     S
V80     Er62    10.0   1_565     S
