data_xaga
_audit_creation_date              2020-02-02
_audit_creation_method            'Pymatgen'
_symmetry_space_group_name_H-M    'P1'
_symmetry_Int_Tables_number       1
loop_
_symmetry_equiv_pos_as_xyz
  x,y,z
_cell_length_a                    80.8375
_cell_length_b                    80.8375
_cell_length_c                    80.8375
_cell_angle_alpha                 90.0
_cell_angle_beta                 90.0
_cell_angle_gamma                 90.0
loop_
_atom_site_label
_atom_site_type_symbol
_atom_site_fract_x
_atom_site_fract_y
_atom_site_fract_z
Ti1     Ti     0.325   0.325   0.5
Ti2     Ti     0.325   0.5   0.325
Ti3     Ti     0.5   0.325   0.325
Ti4     Ti     0.325   0.675   0.5
Ti5     Ti     0.675   0.325   0.5
Ti6     Ti     0.5   0.675   0.325
Ti7     Ti     0.675   0.5   0.325
Ti8     Ti     0.5   0.325   0.675
Ti9     Ti     0.675   0.675   0.5
Ti10     Ti     0.675   0.5   0.675
Ti11     Ti     0.5   0.675   0.675
Ce12     Ce     0.5   0.4125   0.4125
Ce13     Ce     0.5875   0.5   0.4125
Ce14     Ce     0.5875   0.4125   0.5
Ce15     Ce     0.4125   0.5   0.4125
Ce16     Ce     0.4125   0.4125   0.5
Ce17     Ce     0.5   0.5875   0.4125
Ce18     Ce     0.4125   0.5875   0.5
Ce19     Ce     0.4125   0.5   0.5875
Ce20     Ce     0.5   0.4125   0.5875
Ce21     Ce     0.5   0.5875   0.5875
Ce22     Ce     0.5875   0.5   0.5875
Ce23     Ce     0.5875   0.5875   0.5
Ti24     Ti     0.325   0.5   0.675
Ti25     Ti     0.175   0.175   0.0
Ti26     Ti     0.175   0.0   0.175
Ti27     Ti     0.825   0.175   0.0
Ti28     Ti     0.175   0.825   0.0
Ti29     Ti     0.0   0.175   0.825
Ti30     Ti     0.175   0.0   0.825
Ti31     Ti     0.0   0.825   0.175
Ti32     Ti     0.825   0.0   0.175
Ti33     Ti     0.825   0.825   0.0
Ti34     Ti     0.825   0.0   0.825
Ti35     Ti     0.0   0.825   0.825
Ce36     Ce     0.0875   0.0   0.9125
Ce37     Ce     0.0875   0.9125   0.0
Ce38     Ce     0.0875   0.0875   0.0
Ce39     Ce     0.0875   0.0   0.0875
Ce40     Ce     0.9125   0.0875   0.0
Ce41     Ce     0.0   0.0875   0.9125
Ce42     Ce     0.0   0.0875   0.0875
Ce43     Ce     0.9125   0.0   0.0875
Ce44     Ce     0.0   0.9125   0.0875
Ce45     Ce     0.0   0.9125   0.9125
Ce46     Ce     0.9125   0.0   0.9125
Ce47     Ce     0.9125   0.9125   0.0
Ti48     Ti     0.0   0.175   0.175
Er49     Er     0.207   0.0   0.7056
Er50     Er     0.293   0.2056   0.5
Er51     Er     0.207   0.0   0.2944
Er52     Er     0.293   0.7944   0.5
V53     V     0.2387   0.0   0.586
V54     V     0.2387   0.0   0.414
V55     V     0.2613   0.914   0.5
V56     V     0.2613   0.086   0.5
Er57     Er     0.7056   0.0   0.207
Er58     Er     0.5   0.2056   0.293
Er59     Er     0.2944   0.0   0.207
Er60     Er     0.5   0.7944   0.293
V61     V     0.414   0.0   0.2387
V62     V     0.586   0.0   0.2387
V63     V     0.5   0.914   0.2613
V64     V     0.5   0.086   0.2613
Er65     Er     0.7056   0.207   0.0
Er66     Er     0.5   0.293   0.2056
Er67     Er     0.2944   0.207   0.0
Er68     Er     0.5   0.293   0.7944
V69     V     0.586   0.2387   0.0
V70     V     0.414   0.2387   0.0
V71     V     0.5   0.2613   0.914
V72     V     0.5   0.2613   0.086
Er73     Er     0.207   0.7056   0.0
Er74     Er     0.293   0.5   0.2056
Er75     Er     0.207   0.2944   0.0
Er76     Er     0.293   0.5   0.7944
V77     V     0.2387   0.414   0.0
V78     V     0.2387   0.586   0.0
V79     V     0.2613   0.5   0.914
V80     V     0.2613   0.5   0.086
Er81     Er     0.0   0.793   0.7056
Er82     Er     0.2056   0.707   0.5
Er83     Er     0.0   0.793   0.2944
Er84     Er     0.7944   0.707   0.5
V85     V     0.0   0.7613   0.414
V86     V     0.0   0.7613   0.586
V87     V     0.914   0.7387   0.5
V88     V     0.086   0.7387   0.5
Er89     Er     0.0   0.7056   0.793
Er90     Er     0.2056   0.5   0.707
Er91     Er     0.0   0.2944   0.793
Er92     Er     0.7944   0.5   0.707
V93     V     0.0   0.414   0.7613
V94     V     0.0   0.586   0.7613
V95     V     0.914   0.5   0.7387
V96     V     0.086   0.5   0.7387
Er97     Er     0.793   0.0   0.7056
Er98     Er     0.707   0.2056   0.5
Er99     Er     0.793   0.0   0.2944
Er100     Er     0.707   0.7944   0.5
V101     V     0.7613   0.0   0.414
V102     V     0.7613   0.0   0.586
V103     V     0.7387   0.914   0.5
V104     V     0.7387   0.086   0.5
Er105     Er     0.7056   0.0   0.793
Er106     Er     0.5   0.2056   0.707
Er107     Er     0.2944   0.0   0.793
Er108     Er     0.5   0.7944   0.707
V109     V     0.586   0.0   0.7613
V110     V     0.414   0.0   0.7613
V111     V     0.5   0.914   0.7387
V112     V     0.5   0.086   0.7387
Er113     Er     0.7056   0.793   0.0
Er114     Er     0.5   0.707   0.2056
Er115     Er     0.2944   0.793   0.0
Er116     Er     0.5   0.707   0.7944
V117     V     0.414   0.7613   0.0
V118     V     0.586   0.7613   0.0
V119     V     0.5   0.7387   0.914
V120     V     0.5   0.7387   0.086
Er121     Er     0.793   0.7056   0.0
Er122     Er     0.793   0.2944   0.0
Er123     Er     0.707   0.5   0.2056
Er124     Er     0.707   0.5   0.7944
V125     V     0.7613   0.414   0.0
V126     V     0.7613   0.586   0.0
V127     V     0.7387   0.5   0.914
V128     V     0.7387   0.5   0.086
Er129     Er     0.0   0.7056   0.207
Er130     Er     0.2056   0.5   0.293
Er131     Er     0.0   0.2944   0.207
Er132     Er     0.7944   0.5   0.293
V133     V     0.0   0.586   0.2387
V134     V     0.0   0.414   0.2387
V135     V     0.914   0.5   0.2613
V136     V     0.086   0.5   0.2613
Er137     Er     0.0   0.207   0.7056
Er138     Er     0.2056   0.293   0.5
Er139     Er     0.0   0.207   0.2944
Er140     Er     0.7944   0.293   0.5
V141     V     0.0   0.2387   0.586
V142     V     0.0   0.2387   0.414
V143     V     0.914   0.2613   0.5
V144     V     0.086   0.2613   0.5
loop_
_geom_bond_atom_site_label_1
_geom_bond_atom_site_label_2
_geom_bond_distance
_geom_bond_site_symmetry_2
_ccdc_geom_bond_type
Ti1     Er138    10.0   .     S
Ti1     Er50    10.0   .     S
Ti1     Ce16    10.001   .     S
Ti2     Er74    10.0   .     S
Ti2     Er130    10.0   .     S
Ti2     Ce15    10.001   .     S
Ti3     Er66    10.0   .     S
Ti3     Er58    10.0   .     S
Ti3     Ce12    10.001   .     S
Ti4     Er52    10.0   .     S
Ti4     Er82    10.0   .     S
Ti4     Ce18    10.001   .     S
Ti5     Er140    10.0   .     S
Ti5     Er98    10.0   .     S
Ti5     Ce14    10.001   .     S
Ti6     Er60    10.0   .     S
Ti6     Er114    10.0   .     S
Ti6     Ce17    10.001   .     S
Ti7     Er132    10.0   .     S
Ti7     Er123    10.0   .     S
Ti7     Ce13    10.001   .     S
Ti8     Er68    10.0   .     S
Ti8     Er106    10.0   .     S
Ti8     Ce20    10.001   .     S
Ti9     Er100    10.0   .     S
Ti9     Er84    10.0   .     S
Ti9     Ce23    10.001   .     S
Ti10     Er124    10.0   .     S
Ti10     Er92    10.0   .     S
Ti10     Ce22    10.001   .     S
Ti11     Er116    10.0   .     S
Ti11     Er108    10.0   .     S
Ti11     Ce21    10.001   .     S
Ce12     Ce15    10.0   .     S
Ce12     Ce16    10.0   .     S
Ce12     Ce13    10.0   .     S
Ce12     Ce14    10.0   .     S
Ce13     Ce17    10.0   .     S
Ce13     Ce23    10.0   .     S
Ce13     Ce14    10.0   .     S
Ce14     Ce20    10.0   .     S
Ce14     Ce22    10.0   .     S
Ce15     Ce17    10.0   .     S
Ce15     Ce18    10.0   .     S
Ce15     Ce16    10.0   .     S
Ce16     Ce19    10.0   .     S
Ce16     Ce20    10.0   .     S
Ce17     Ce23    10.0   .     S
Ce17     Ce18    10.0   .     S
Ce18     Ce21    10.0   .     S
Ce18     Ce19    10.0   .     S
Ce19     Ce20    10.0   .     S
Ce19     Ce21    10.0   .     S
Ce19     Ti24    10.001   .     S
Ce20     Ce22    10.0   .     S
Ce21     Ce22    10.0   .     S
Ce21     Ce23    10.0   .     S
Ce22     Ce23    10.0   .     S
Ti24     Er76    10.0   .     S
Ti24     Er90    10.0   .     S
Ti25     Er75    10.0   .     S
Ti25     Er67    10.0   .     S
Ti25     Ce38    10.001   .     S
Ti26     Er51    10.0   .     S
Ti26     Er59    10.0   .     S
Ti26     Ce39    10.001   .     S
Ti27     Er122    10.0   .     S
Ti27     Er65    10.0   .     S
Ti27     Ce40    10.001   .     S
Ti28     Er115    10.0   .     S
Ti28     Er73    10.0   .     S
Ti28     Ce37    10.001   .     S
Ti29     Er91    10.0   .     S
Ti29     Er137    10.0   .     S
Ti29     Ce41    10.001   .     S
Ti30     Er107    10.0   .     S
Ti30     Er49    10.0   .     S
Ti30     Ce36    10.001   .     S
Ti31     Er83    10.0   .     S
Ti31     Er129    10.0   .     S
Ti31     Ce44    10.001   .     S
Ti32     Er99    10.0   .     S
Ti32     Er57    10.0   .     S
Ti32     Ce43    10.001   .     S
Ti33     Er113    10.0   .     S
Ti33     Er121    10.0   .     S
Ti33     Ce47    10.001   .     S
Ti34     Er97    10.0   .     S
Ti34     Er105    10.0   .     S
Ti34     Ce46    10.001   .     S
Ti35     Er81    10.0   .     S
Ti35     Er89    10.0   .     S
Ti35     Ce45    10.001   .     S
Ce36     Ce45    10.0   1_545     S
Ce36     Ce37    10.0   1_546     S
Ce36     Ce38    10.0   1_556     S
Ce36     Ce41    10.0   .     S
Ce37     Ce36    10.0   1_564     S
Ce37     Ce45    10.0   1_554     S
Ce37     Ce39    10.0   1_565     S
Ce37     Ce44    10.0   .     S
Ce38     Ce41    10.0   1_554     S
Ce38     Ce36    10.0   1_554     S
Ce38     Ce39    10.0   .     S
Ce38     Ce42    10.0   .     S
Ce39     Ce44    10.0   1_545     S
Ce39     Ce37    10.0   1_545     S
Ce39     Ce42    10.0   .     S
Ce40     Ce46    10.0   1_554     S
Ce40     Ce41    10.0   1_654     S
Ce40     Ce42    10.0   1_655     S
Ce40     Ce43    10.0   .     S
Ce41     Ce38    10.0   1_556     S
Ce41     Ce40    10.0   1_456     S
Ce41     Ce46    10.0   1_455     S
Ce42     Ce43    10.0   1_455     S
Ce42     Ce40    10.0   1_455     S
Ce42     Ti48    10.001   .     S
Ce43     Ce42    10.0   1_655     S
Ce43     Ce44    10.0   1_645     S
Ce43     Ce47    10.0   1_545     S
Ce44     Ce39    10.0   1_565     S
Ce44     Ce43    10.0   1_465     S
Ce44     Ce47    10.0   1_455     S
Ce45     Ce36    10.0   1_565     S
Ce45     Ce37    10.0   1_556     S
Ce45     Ce46    10.0   1_465     S
Ce45     Ce47    10.0   1_456     S
Ce46     Ce40    10.0   1_556     S
Ce46     Ce41    10.0   1_655     S
Ce46     Ce45    10.0   1_645     S
Ce46     Ce47    10.0   1_546     S
Ce47     Ce43    10.0   1_565     S
Ce47     Ce44    10.0   1_655     S
Ce47     Ce45    10.0   1_654     S
Ce47     Ce46    10.0   1_564     S
Ti48     Er139    10.0   .     S
Ti48     Er131    10.0   .     S
Er49     V53    10.0   .     S
Er49     Er107    10.001   .     S
Er50     V56    10.0   .     S
Er50     Er138    10.001   .     S
Er51     V54    10.0   .     S
Er51     Er59    10.001   .     S
Er52     V55    10.0   .     S
Er52     Er82    10.001   .     S
V53     V56    10.0   .     S
V53     V55    10.0   1_545     S
V54     V56    10.0   .     S
V54     V55    10.0   1_545     S
V55     V54    10.0   1_565     S
V55     V53    10.0   1_565     S
Er57     V62    10.0   .     S
Er57     Er99    10.001   .     S
Er58     V64    10.0   .     S
Er58     Er66    10.001   .     S
Er59     V61    10.0   .     S
Er60     V63    10.0   .     S
Er60     Er114    10.001   .     S
V61     V64    10.0   .     S
V61     V63    10.0   1_545     S
V62     V64    10.0   .     S
V62     V63    10.0   1_545     S
V63     V62    10.0   1_565     S
V63     V61    10.0   1_565     S
Er65     V69    10.0   .     S
Er65     Er122    10.001   .     S
Er66     V72    10.0   .     S
Er67     V70    10.0   .     S
Er67     Er75    10.001   .     S
Er68     V71    10.0   .     S
Er68     Er106    10.001   .     S
V69     V72    10.0   .     S
V69     V71    10.0   1_554     S
V70     V72    10.0   .     S
V70     V71    10.0   1_554     S
V71     V70    10.0   1_556     S
V71     V69    10.0   1_556     S
Er73     V78    10.0   .     S
Er73     Er115    10.001   .     S
Er74     V80    10.0   .     S
Er74     Er130    10.001   .     S
Er75     V77    10.0   .     S
Er76     V79    10.0   .     S
Er76     Er90    10.001   .     S
V77     V80    10.0   .     S
V77     V79    10.0   1_554     S
V78     V80    10.0   .     S
V78     V79    10.0   1_554     S
V79     V78    10.0   1_556     S
V79     V77    10.0   1_556     S
Er81     V86    10.0   .     S
Er81     Er89    10.001   .     S
Er82     V88    10.0   .     S
Er83     V85    10.0   .     S
Er83     Er129    10.001   .     S
Er84     V87    10.0   .     S
Er84     Er100    10.001   .     S
V85     V88    10.0   .     S
V85     V87    10.0   1_455     S
V86     V88    10.0   .     S
V86     V87    10.0   1_455     S
V87     V86    10.0   1_655     S
V87     V85    10.0   1_655     S
Er89     V94    10.0   .     S
Er90     V96    10.0   .     S
Er91     V93    10.0   .     S
Er91     Er137    10.001   .     S
Er92     V95    10.0   .     S
Er92     Er124    10.001   .     S
V93     V96    10.0   .     S
V93     V95    10.0   1_455     S
V94     V96    10.0   .     S
V94     V95    10.0   1_455     S
V95     V94    10.0   1_655     S
V95     V93    10.0   1_655     S
Er97     V102    10.0   .     S
Er97     Er105    10.001   .     S
Er98     V104    10.0   .     S
Er98     Er140    10.001   .     S
Er99     V101    10.0   .     S
Er100     V103    10.0   .     S
V101     V104    10.0   .     S
V101     V103    10.0   1_545     S
V102     V104    10.0   .     S
V102     V103    10.0   1_545     S
V103     V102    10.0   1_565     S
V103     V101    10.0   1_565     S
Er105     V109    10.0   .     S
Er106     V112    10.0   .     S
Er107     V110    10.0   .     S
Er108     V111    10.0   .     S
Er108     Er116    10.001   .     S
V109     V112    10.0   .     S
V109     V111    10.0   1_545     S
V110     V112    10.0   .     S
V110     V111    10.0   1_545     S
V111     V110    10.0   1_565     S
V111     V109    10.0   1_565     S
Er113     V118    10.0   .     S
Er113     Er121    10.001   .     S
Er114     V120    10.0   .     S
Er115     V117    10.0   .     S
Er116     V119    10.0   .     S
V117     V120    10.0   .     S
V117     V119    10.0   1_554     S
V118     V120    10.0   .     S
V118     V119    10.0   1_554     S
V119     V118    10.0   1_556     S
V119     V117    10.0   1_556     S
Er121     V126    10.0   .     S
Er122     V125    10.0   .     S
Er123     V128    10.0   .     S
Er123     Er132    10.001   .     S
Er124     V127    10.0   .     S
V125     V128    10.0   .     S
V125     V127    10.0   1_554     S
V126     V128    10.0   .     S
V126     V127    10.0   1_554     S
V127     V126    10.0   1_556     S
V127     V125    10.0   1_556     S
Er129     V133    10.0   .     S
Er130     V136    10.0   .     S
Er131     V134    10.0   .     S
Er131     Er139    10.001   .     S
Er132     V135    10.0   .     S
V133     V136    10.0   .     S
V133     V135    10.0   1_455     S
V134     V136    10.0   .     S
V134     V135    10.0   1_455     S
V135     V134    10.0   1_655     S
V135     V133    10.0   1_655     S
Er137     V141    10.0   .     S
Er138     V144    10.0   .     S
Er139     V142    10.0   .     S
Er140     V143    10.0   .     S
V141     V144    10.0   .     S
V141     V143    10.0   1_455     S
V142     V144    10.0   .     S
V142     V143    10.0   1_455     S
V143     V142    10.0   1_655     S
V143     V141    10.0   1_655     S
