data_xal
_audit_creation_date              2020-02-02
_audit_creation_method            'Pymatgen'
_symmetry_space_group_name_H-M    'P1'
_symmetry_Int_Tables_number       1
loop_
_symmetry_equiv_pos_as_xyz
  x,y,z
_cell_length_a                    20.0002
_cell_length_b                    20.0002
_cell_length_c                    14.142
_cell_angle_alpha                 90.0
_cell_angle_beta                 90.0
_cell_angle_gamma                 90.0
loop_
_atom_site_label
_atom_site_type_symbol
_atom_site_fract_x
_atom_site_fract_y
_atom_site_fract_z
V1     V     0.0   0.0   0.0
V2     V     0.0   0.5   0.0
V3     V     0.5   0.0   0.0
V4     V     0.5   0.5   0.0
Er5     Er     0.25   0.25   0.5
Er6     Er     0.25   0.75   0.5
Er7     Er     0.75   0.25   0.5
Er8     Er     0.75   0.75   0.5
loop_
_geom_bond_atom_site_label_1
_geom_bond_atom_site_label_2
_geom_bond_distance
_geom_bond_site_symmetry_2
_ccdc_geom_bond_type
V1     Er6    10.0   1_544     S
V1     Er5    10.0   1_554     S
V1     Er7    10.0   1_454     S
V1     Er8    10.0   1_444     S
V1     V2    10.0   .     S
V1     V2    10.0   1_545     S
V1     V3    10.0   .     S
V1     V3    10.0   1_455     S
V1     Er5    10.0   .     S
V1     Er7    10.0   1_455     S
V1     Er8    10.0   1_445     S
V1     Er6    10.0   1_545     S
V2     Er5    10.0   1_554     S
V2     Er6    10.0   1_554     S
V2     Er8    10.0   1_454     S
V2     Er7    10.0   1_454     S
V2     V1    10.0   1_565     S
V2     V4    10.0   .     S
V2     V4    10.0   1_455     S
V2     Er6    10.0   .     S
V2     Er8    10.0   1_455     S
V2     Er7    10.0   1_455     S
V2     Er5    10.0   .     S
V3     Er8    10.0   1_544     S
V3     Er7    10.0   1_554     S
V3     Er5    10.0   1_554     S
V3     Er6    10.0   1_544     S
V3     V4    10.0   .     S
V3     V4    10.0   1_545     S
V3     V1    10.0   1_655     S
V3     Er7    10.0   .     S
V3     Er5    10.0   .     S
V3     Er6    10.0   1_545     S
V3     Er8    10.0   1_545     S
V4     Er7    10.0   1_554     S
V4     Er8    10.0   1_554     S
V4     Er6    10.0   1_554     S
V4     Er5    10.0   1_554     S
V4     V3    10.0   1_565     S
V4     V2    10.0   1_655     S
V4     Er8    10.0   .     S
V4     Er6    10.0   .     S
V4     Er5    10.0   .     S
V4     Er7    10.0   .     S
Er5     V2    10.0   1_556     S
Er5     V1    10.0   1_556     S
Er5     V3    10.0   1_556     S
Er5     V4    10.0   1_556     S
Er6     V1    10.0   1_566     S
Er6     V2    10.0   1_556     S
Er6     V4    10.0   1_556     S
Er6     V3    10.0   1_566     S
Er6     V3    10.0   1_565     S
Er6     V1    10.0   1_565     S
Er7     V4    10.0   1_556     S
Er7     V3    10.0   1_556     S
Er7     V1    10.0   1_656     S
Er7     V2    10.0   1_656     S
Er7     V1    10.0   1_655     S
Er7     V2    10.0   1_655     S
Er8     V3    10.0   1_566     S
Er8     V4    10.0   1_556     S
Er8     V2    10.0   1_656     S
Er8     V1    10.0   1_666     S
Er8     V2    10.0   1_655     S
Er8     V1    10.0   1_665     S
Er8     V3    10.0   1_565     S
