data_xan
_audit_creation_date              2020-02-02
_audit_creation_method            'Pymatgen'
_symmetry_space_group_name_H-M    'P1'
_symmetry_Int_Tables_number       1
loop_
_symmetry_equiv_pos_as_xyz
  x,y,z
_cell_length_a                    20.0
_cell_length_b                    20.0
_cell_length_c                    54.1424
_cell_angle_alpha                 90.0
_cell_angle_beta                 90.0
_cell_angle_gamma                 90.0
loop_
_atom_site_label
_atom_site_type_symbol
_atom_site_fract_x
_atom_site_fract_y
_atom_site_fract_z
V1     V     0.0   0.0   0.6847
V2     V     0.0   0.5   0.6847
V3     V     0.5   0.0   0.6847
V4     V     0.5   0.5   0.6847
V5     V     0.25   0.25   0.8153
V6     V     0.25   0.75   0.8153
V7     V     0.75   0.25   0.8153
V8     V     0.75   0.75   0.8153
Er9     Er     0.0   0.0   0.5
Er10     Er     0.0   0.5   0.5
Er11     Er     0.5   0.0   0.5
Er12     Er     0.5   0.5   0.5
Er13     Er     0.25   0.25   0.0
Er14     Er     0.25   0.75   0.0
Er15     Er     0.75   0.25   0.0
Er16     Er     0.75   0.75   0.0
V17     V     0.25   0.25   0.1847
V18     V     0.25   0.75   0.1847
V19     V     0.75   0.25   0.1847
V20     V     0.75   0.75   0.1847
V21     V     0.0   0.0   0.3153
V22     V     0.0   0.5   0.3153
V23     V     0.5   0.0   0.3153
V24     V     0.5   0.5   0.3153
loop_
_geom_bond_atom_site_label_1
_geom_bond_atom_site_label_2
_geom_bond_distance
_geom_bond_site_symmetry_2
_ccdc_geom_bond_type
V1     V6    10.0   1_545     S
V1     V5    10.0   .     S
V1     V7    10.0   1_455     S
V1     V8    10.0   1_445     S
V1     Er9    10.0   .     S
V2     V5    10.0   .     S
V2     V6    10.0   .     S
V2     V8    10.0   1_455     S
V2     V7    10.0   1_455     S
V2     Er10    10.0   .     S
V3     V8    10.0   1_545     S
V3     V7    10.0   .     S
V3     V5    10.0   .     S
V3     V6    10.0   1_545     S
V3     Er11    10.0   .     S
V4     V7    10.0   .     S
V4     V8    10.0   .     S
V4     V6    10.0   .     S
V4     V5    10.0   .     S
V4     Er12    10.0   .     S
V5     Er13    10.0   1_556     S
V6     V1    10.0   1_565     S
V6     V3    10.0   1_565     S
V6     Er14    10.0   1_556     S
V7     V1    10.0   1_655     S
V7     V2    10.0   1_655     S
V7     Er15    10.0   1_556     S
V8     V3    10.0   1_565     S
V8     V2    10.0   1_655     S
V8     V1    10.0   1_665     S
V8     Er16    10.0   1_556     S
Er9     Er10    10.0   .     S
Er9     Er10    10.0   1_545     S
Er9     Er11    10.0   .     S
Er9     Er11    10.0   1_455     S
Er9     V21    10.0   .     S
Er10     Er9    10.0   1_565     S
Er10     Er12    10.0   .     S
Er10     Er12    10.0   1_455     S
Er10     V22    10.0   .     S
Er11     Er12    10.0   .     S
Er11     Er12    10.0   1_545     S
Er11     Er9    10.0   1_655     S
Er11     V23    10.0   .     S
Er12     Er11    10.0   1_565     S
Er12     Er10    10.0   1_655     S
Er12     V24    10.0   .     S
Er13     V5    10.0   1_554     S
Er13     Er14    10.0   1_545     S
Er13     Er14    10.0   .     S
Er13     Er15    10.0   1_455     S
Er13     Er15    10.0   .     S
Er13     V17    10.0   .     S
Er14     V6    10.0   1_554     S
Er14     Er13    10.0   1_565     S
Er14     Er16    10.0   1_455     S
Er14     Er16    10.0   .     S
Er14     V18    10.0   .     S
Er15     V7    10.0   1_554     S
Er15     Er16    10.0   1_545     S
Er15     Er16    10.0   .     S
Er15     Er13    10.0   1_655     S
Er15     V19    10.0   .     S
Er16     V8    10.0   1_554     S
Er16     Er15    10.0   1_565     S
Er16     Er14    10.0   1_655     S
Er16     V20    10.0   .     S
V17     V21    10.0   .     S
V17     V23    10.0   .     S
V17     V24    10.0   .     S
V17     V22    10.0   .     S
V18     V22    10.0   .     S
V18     V24    10.0   .     S
V18     V23    10.0   1_565     S
V18     V21    10.0   1_565     S
V19     V23    10.0   .     S
V19     V21    10.0   1_655     S
V19     V22    10.0   1_655     S
V19     V24    10.0   .     S
V20     V24    10.0   .     S
V20     V22    10.0   1_655     S
V20     V21    10.0   1_665     S
V20     V23    10.0   1_565     S
V21     V19    10.0   1_455     S
V21     V20    10.0   1_445     S
V21     V18    10.0   1_545     S
V22     V20    10.0   1_455     S
V22     V19    10.0   1_455     S
V23     V18    10.0   1_545     S
V23     V20    10.0   1_545     S
