data_xap
_audit_creation_date              2020-02-02
_audit_creation_method            'Pymatgen'
_symmetry_space_group_name_H-M    'P1'
_symmetry_Int_Tables_number       1
loop_
_symmetry_equiv_pos_as_xyz
  x,y,z
_cell_length_a                    60.3301
_cell_length_b                    60.3301
_cell_length_c                    60.3301
_cell_angle_alpha                 90.0
_cell_angle_beta                 90.0
_cell_angle_gamma                 90.0
loop_
_atom_site_label
_atom_site_type_symbol
_atom_site_fract_x
_atom_site_fract_y
_atom_site_fract_z
Ti1     Ti     0.4043   0.5957   0.9043
Ti2     Ti     0.5957   0.4043   0.9043
Er3     Er     0.6914   0.3086   0.0
Er4     Er     0.8086   0.1914   0.0
Er5     Er     0.6914   0.0   0.3086
Er6     Er     0.8086   0.0   0.1914
Ti7     Ti     0.9043   0.0957   0.0957
Ti8     Ti     0.5957   0.9043   0.4043
Ti9     Ti     0.4043   0.9043   0.5957
Er10     Er     0.3086   0.6914   0.0
Er11     Er     0.1914   0.8086   0.0
Er12     Er     0.0   0.6914   0.3086
Er13     Er     0.0   0.8086   0.1914
Ti14     Ti     0.0957   0.9043   0.0957
Ti15     Ti     0.9043   0.5957   0.4043
Ti16     Ti     0.5957   0.5957   0.9043
Er17     Er     0.5   0.8086   0.6914
Er18     Er     0.5   0.6914   0.8086
Ti19     Ti     0.5957   0.9043   0.5957
Er20     Er     0.8086   0.6914   0.5
Er21     Er     0.6914   0.8086   0.5
Er22     Er     0.8086   0.5   0.6914
Er23     Er     0.6914   0.5   0.8086
Ti24     Ti     0.9043   0.5957   0.5957
Ti25     Ti     0.9043   0.4043   0.5957
Er26     Er     0.6914   0.6914   0.0
Er27     Er     0.8086   0.8086   0.0
Ti28     Ti     0.9043   0.9043   0.0957
Er29     Er     0.6914   0.0   0.6914
Er30     Er     0.8086   0.0   0.8086
Ti31     Ti     0.9043   0.0957   0.9043
Er32     Er     0.0   0.6914   0.6914
Er33     Er     0.0   0.8086   0.8086
Ti34     Ti     0.0957   0.9043   0.9043
Ti35     Ti     0.9043   0.9043   0.9043
Er36     Er     0.0   0.3086   0.6914
Er37     Er     0.0   0.1914   0.8086
Er38     Er     0.3086   0.0   0.6914
Er39     Er     0.1914   0.0   0.8086
Ti40     Ti     0.0957   0.0957   0.9043
Ti41     Ti     0.5957   0.4043   0.0957
Ti42     Ti     0.4043   0.5957   0.0957
Ti43     Ti     0.5957   0.0957   0.4043
Ti44     Ti     0.4043   0.0957   0.5957
Ti45     Ti     0.0957   0.5957   0.4043
Ti46     Ti     0.0957   0.4043   0.5957
V47     V     0.5   0.5   0.0
Ti48     Ti     0.4043   0.4043   0.9043
Er49     Er     0.1914   0.5   0.6914
Er50     Er     0.3086   0.5   0.8086
Ti51     Ti     0.0957   0.5957   0.5957
V52     V     0.5   0.0   0.5
Er53     Er     0.1914   0.6914   0.5
Er54     Er     0.3086   0.8086   0.5
Ti55     Ti     0.4043   0.9043   0.4043
Er56     Er     0.5   0.6914   0.1914
Er57     Er     0.5   0.8086   0.3086
Ti58     Ti     0.5957   0.5957   0.0957
Er59     Er     0.5   0.1914   0.6914
Er60     Er     0.5   0.3086   0.8086
Ti61     Ti     0.5957   0.0957   0.5957
Er62     Er     0.6914   0.1914   0.5
Er63     Er     0.8086   0.3086   0.5
Er64     Er     0.6914   0.5   0.1914
Er65     Er     0.8086   0.5   0.3086
Ti66     Ti     0.9043   0.4043   0.4043
V67     V     0.0   0.5   0.5
Ti68     Ti     0.4043   0.4043   0.0957
Er69     Er     0.5   0.1914   0.3086
Er70     Er     0.5   0.3086   0.1914
Ti71     Ti     0.4043   0.0957   0.4043
Er72     Er     0.1914   0.3086   0.5
Er73     Er     0.3086   0.1914   0.5
Er74     Er     0.1914   0.5   0.3086
Er75     Er     0.3086   0.5   0.1914
Ti76     Ti     0.0957   0.4043   0.4043
Er77     Er     0.3086   0.3086   0.0
Er78     Er     0.1914   0.1914   0.0
Er79     Er     0.3086   0.0   0.3086
Er80     Er     0.1914   0.0   0.1914
V81     V     0.0   0.0   0.0
Ti82     Ti     0.0957   0.0957   0.0957
Er83     Er     0.0   0.3086   0.3086
Er84     Er     0.0   0.1914   0.1914
loop_
_geom_bond_atom_site_label_1
_geom_bond_atom_site_label_2
_geom_bond_distance
_geom_bond_site_symmetry_2
_ccdc_geom_bond_type
Ti1     Er18    10.0   .     S
Ti1     Er10    10.0   1_556     S
Ti1     V47    10.0   1_556     S
Ti1     Er50    10.0   .     S
Ti2     Er23    10.0   .     S
Ti2     Er3    10.0   1_556     S
Ti2     V47    10.0   1_556     S
Ti2     Er60    10.0   .     S
Er3     Ti2    10.0   1_554     S
Er3     Er4    9.999   .     S
Er3     Ti41    10.0   .     S
Er4     Ti7    10.0   .     S
Er4     Ti31    10.0   1_554     S
Er5     Er6    9.999   .     S
Er5     Ti8    10.0   1_545     S
Er5     Ti43    10.0   .     S
Er6     Ti7    10.0   .     S
Er6     Ti28    10.0   1_545     S
Ti7     V81    10.0   1_655     S
Ti7     Er84    10.0   1_655     S
Ti8     Er21    10.0   .     S
Ti8     Er5    10.0   1_565     S
Ti8     V52    10.0   1_565     S
Ti8     Er57    10.0   .     S
Ti9     Er17    10.0   .     S
Ti9     Er38    10.0   1_565     S
Ti9     V52    10.0   1_565     S
Ti9     Er54    10.0   .     S
Er10     Ti1    10.0   1_554     S
Er10     Er11    9.999   .     S
Er10     Ti42    10.0   .     S
Er11     Ti14    10.0   .     S
Er11     Ti34    10.0   1_554     S
Er12     Er13    9.999   .     S
Er12     Ti15    10.0   1_455     S
Er12     Ti45    10.0   .     S
Er13     Ti28    10.0   1_455     S
Er13     Ti14    10.0   .     S
Ti14     Er80    10.0   1_565     S
Ti14     V81    10.0   1_565     S
Ti15     Er20    10.0   .     S
Ti15     Er12    10.0   1_655     S
Ti15     Er65    10.0   .     S
Ti15     V67    10.0   1_655     S
Ti16     Er26    10.0   1_556     S
Ti16     Er23    10.0   .     S
Ti16     Er18    10.0   .     S
Ti16     V47    10.0   1_556     S
Er17     Er18    9.999   .     S
Er17     Ti19    10.0   .     S
Ti19     Er29    10.0   1_565     S
Ti19     Er21    10.0   .     S
Ti19     V52    10.0   1_565     S
Er20     Er21    9.999   .     S
Er20     Ti24    10.0   .     S
Er22     Er23    9.999   .     S
Er22     Ti24    10.0   .     S
Er22     Ti25    10.0   .     S
Ti24     Er32    10.0   1_655     S
Ti24     V67    10.0   1_655     S
Ti25     Er36    10.0   1_655     S
Ti25     Er63    10.0   .     S
Ti25     V67    10.0   1_655     S
Er26     Ti16    10.0   1_554     S
Er26     Er27    9.999   .     S
Er26     Ti58    10.0   .     S
Er27     Ti35    10.0   1_554     S
Er27     Ti28    10.0   .     S
Ti28     Er6    10.0   1_565     S
Ti28     Er13    10.0   1_655     S
Ti28     V81    10.0   1_665     S
Er29     Ti19    10.0   1_545     S
Er29     Er30    9.999   .     S
Er29     Ti61    10.0   .     S
Er30     Ti35    10.0   1_545     S
Er30     Ti31    10.0   .     S
Ti31     Er4    10.0   1_556     S
Ti31     Er37    10.0   1_655     S
Ti31     V81    10.0   1_656     S
Er32     Ti24    10.0   1_455     S
Er32     Er33    9.999   .     S
Er32     Ti51    10.0   .     S
Er33     Ti34    10.0   .     S
Er33     Ti35    10.0   1_455     S
Ti34     Er11    10.0   1_556     S
Ti34     Er39    10.0   1_565     S
Ti34     V81    10.0   1_566     S
Ti35     Er27    10.0   1_556     S
Ti35     Er30    10.0   1_565     S
Ti35     Er33    10.0   1_655     S
Ti35     V81    10.0   1_666     S
Er36     Ti25    10.0   1_455     S
Er36     Er37    9.999   .     S
Er36     Ti46    10.0   .     S
Er37     Ti40    10.0   .     S
Er37     Ti31    10.0   1_455     S
Er38     Ti9    10.0   1_545     S
Er38     Er39    9.999   .     S
Er38     Ti44    10.0   .     S
Er39     Ti40    10.0   .     S
Er39     Ti34    10.0   1_545     S
Ti40     Er78    10.0   1_556     S
Ti40     V81    10.0   1_556     S
Ti41     Er64    10.0   .     S
Ti41     V47    10.0   .     S
Ti41     Er70    10.0   .     S
Ti42     Er56    10.0   .     S
Ti42     V47    10.0   .     S
Ti42     Er75    10.0   .     S
Ti43     Er62    10.0   .     S
Ti43     V52    10.0   .     S
Ti43     Er69    10.0   .     S
Ti44     Er59    10.0   .     S
Ti44     V52    10.0   .     S
Ti44     Er73    10.0   .     S
Ti45     Er53    10.0   .     S
Ti45     V67    10.0   .     S
Ti45     Er74    10.0   .     S
Ti46     Er49    10.0   .     S
Ti46     V67    10.0   .     S
Ti46     Er72    10.0   .     S
V47     Ti58    10.0   .     S
V47     Ti16    10.0   1_554     S
V47     Ti2    10.0   1_554     S
V47     Ti1    10.0   1_554     S
V47     Ti48    10.0   1_554     S
V47     Ti68    10.0   .     S
Ti48     Er50    10.0   .     S
Ti48     Er60    10.0   .     S
Ti48     V47    10.0   1_556     S
Ti48     Er77    10.0   1_556     S
Er49     Er50    9.999   .     S
Er49     Ti51    10.0   .     S
Ti51     Er53    10.0   .     S
Ti51     V67    10.0   .     S
V52     Ti61    10.0   .     S
V52     Ti19    10.0   1_545     S
V52     Ti9    10.0   1_545     S
V52     Ti8    10.0   1_545     S
V52     Ti55    10.0   1_545     S
V52     Ti71    10.0   .     S
Er53     Er54    9.999   .     S
Er54     Ti55    10.0   .     S
Ti55     Er57    10.0   .     S
Ti55     V52    10.0   1_565     S
Ti55     Er79    10.0   1_565     S
Er56     Er57    9.999   .     S
Er56     Ti58    10.0   .     S
Ti58     Er64    10.0   .     S
Er59     Er60    9.999   .     S
Er59     Ti61    10.0   .     S
Ti61     Er62    10.0   .     S
Er62     Er63    9.999   .     S
Er63     Ti66    10.0   .     S
Er64     Er65    9.999   .     S
Er65     Ti66    10.0   .     S
Ti66     V67    10.0   1_655     S
Ti66     Er83    10.0   1_655     S
V67     Ti24    10.0   1_455     S
V67     Ti25    10.0   1_455     S
V67     Ti15    10.0   1_455     S
V67     Ti66    10.0   1_455     S
V67     Ti76    10.0   .     S
Ti68     Er70    10.0   .     S
Ti68     Er75    10.0   .     S
Ti68     Er77    10.0   .     S
Er69     Er70    9.999   .     S
Er69     Ti71    10.0   .     S
Ti71     Er73    10.0   .     S
Ti71     Er79    10.0   .     S
Er72     Er73    9.999   .     S
Er72     Ti76    10.0   .     S
Er74     Er75    9.999   .     S
Er74     Ti76    10.0   .     S
Ti76     Er83    10.0   .     S
Er77     Er78    9.999   .     S
Er77     Ti48    10.0   1_554     S
Er78     Ti82    10.0   .     S
Er78     Ti40    10.0   1_554     S
Er79     Er80    9.999   .     S
Er79     Ti55    10.0   1_545     S
Er80     Ti82    10.0   .     S
Er80     Ti14    10.0   1_545     S
V81     Ti28    10.0   1_445     S
V81     Ti34    10.0   1_544     S
V81     Ti31    10.0   1_454     S
V81     Ti35    10.0   1_444     S
V81     Ti7    10.0   1_455     S
V81     Ti14    10.0   1_545     S
V81     Ti40    10.0   1_554     S
V81     Ti82    10.0   .     S
Ti82     Er84    10.0   .     S
Er83     Er84    9.999   .     S
Er83     Ti66    10.0   1_455     S
Er84     Ti7    10.0   1_455     S
