data_xaq
_audit_creation_date              2020-02-02
_audit_creation_method            'Pymatgen'
_symmetry_space_group_name_H-M    'P1'
_symmetry_Int_Tables_number       1
loop_
_symmetry_equiv_pos_as_xyz
  x,y,z
_cell_length_a                    33.0942
_cell_length_b                    33.0942
_cell_length_c                    33.0942
_cell_angle_alpha                 90.0
_cell_angle_beta                 90.0
_cell_angle_gamma                 90.0
loop_
_atom_site_label
_atom_site_type_symbol
_atom_site_fract_x
_atom_site_fract_y
_atom_site_fract_z
Ti1     Ti     0.6745   0.3255   0.3255
Ti2     Ti     0.3255   0.6745   0.3255
V3     V     0.5   0.5   0.8489
V4     V     0.5   0.5   0.1511
Er5     Er     0.5   0.5   0.5
V6     V     0.5   0.8489   0.5
V7     V     0.5   0.1511   0.5
V8     V     0.8489   0.5   0.5
V9     V     0.1511   0.5   0.5
Ti10     Ti     0.3255   0.3255   0.6745
Ti11     Ti     0.6745   0.6745   0.6745
loop_
_geom_bond_atom_site_label_1
_geom_bond_atom_site_label_2
_geom_bond_distance
_geom_bond_site_symmetry_2
_ccdc_geom_bond_type
Ti1     V8    10.0   .     S
Ti1     V4    10.0   .     S
Ti1     Er5    10.0   .     S
Ti1     V7    10.0   .     S
Ti2     V6    10.0   .     S
Ti2     V4    10.0   .     S
Ti2     Er5    10.0   .     S
Ti2     V9    10.0   .     S
V3     V4    10.0   1_556     S
V3     Ti11    10.0   .     S
V3     Ti10    10.0   .     S
V4     V3    10.0   1_554     S
Er5     Ti11    10.0   .     S
Er5     Ti10    10.0   .     S
V6     V7    10.0   1_565     S
V6     Ti11    10.0   .     S
V7     V6    10.0   1_545     S
V7     Ti10    10.0   .     S
V8     V9    10.0   1_655     S
V8     Ti11    10.0   .     S
V9     V8    10.0   1_455     S
V9     Ti10    10.0   .     S
