data_xba
_audit_creation_date              2020-02-02
_audit_creation_method            'Pymatgen'
_symmetry_space_group_name_H-M    'P1'
_symmetry_Int_Tables_number       1
loop_
_symmetry_equiv_pos_as_xyz
  x,y,z
_cell_length_a                    25.6891
_cell_length_b                    25.6891
_cell_length_c                    25.6891
_cell_angle_alpha                 90.0
_cell_angle_beta                 90.0
_cell_angle_gamma                 90.0
loop_
_atom_site_label
_atom_site_type_symbol
_atom_site_fract_x
_atom_site_fract_y
_atom_site_fract_z
Er1     Er     0.5   0.5   0.5
Ti2     Ti     0.7248   0.7248   0.7248
Ti3     Ti     0.7248   0.2752   0.7248
Ti4     Ti     0.2752   0.7248   0.7248
Ti5     Ti     0.2752   0.2752   0.7248
V6     V     0.0   0.0   0.7242
Ti7     Ti     0.7248   0.7248   0.2752
Ti8     Ti     0.2752   0.7248   0.2752
V9     V     0.0   0.7242   0.0
Ti10     Ti     0.2752   0.2752   0.2752
V11     V     0.0   0.0   0.2758
V12     V     0.2758   0.0   0.0
V13     V     0.0   0.2758   0.0
Ti14     Ti     0.7248   0.2752   0.2752
V15     V     0.7242   0.0   0.0
loop_
_geom_bond_atom_site_label_1
_geom_bond_atom_site_label_2
_geom_bond_distance
_geom_bond_site_symmetry_2
_ccdc_geom_bond_type
Er1     Ti10    10.0   .     S
Er1     Ti14    10.0   .     S
Er1     Ti8    10.0   .     S
Er1     Ti5    10.0   .     S
Er1     Ti7    10.0   .     S
Er1     Ti4    10.0   .     S
Er1     Ti3    10.0   .     S
Er1     Ti2    10.0   .     S
Ti2     V6    10.0   1_665     S
Ti2     V9    10.0   1_656     S
Ti2     V15    10.0   1_566     S
Ti3     V13    10.0   1_656     S
Ti3     V6    10.0   1_655     S
Ti3     V15    10.0   1_556     S
Ti4     V12    10.0   1_566     S
Ti4     V6    10.0   1_565     S
Ti4     V9    10.0   1_556     S
Ti5     V13    10.0   1_556     S
Ti5     V12    10.0   1_556     S
Ti5     V6    10.0   .     S
V6     Ti2    10.0   1_445     S
V6     Ti3    10.0   1_455     S
V6     Ti4    10.0   1_545     S
Ti7     V11    10.0   1_665     S
Ti7     V15    10.0   1_565     S
Ti7     V9    10.0   1_655     S
Ti8     V11    10.0   1_565     S
Ti8     V12    10.0   1_565     S
Ti8     V9    10.0   .     S
V9     Ti2    10.0   1_454     S
V9     Ti4    10.0   1_554     S
V9     Ti7    10.0   1_455     S
Ti10     V11    10.0   .     S
Ti10     V12    10.0   .     S
Ti10     V13    10.0   .     S
V11     Ti7    10.0   1_445     S
V11     Ti8    10.0   1_545     S
V11     Ti14    10.0   1_455     S
V12     Ti4    10.0   1_544     S
V12     Ti5    10.0   1_554     S
V12     Ti8    10.0   1_545     S
V13     Ti3    10.0   1_454     S
V13     Ti5    10.0   1_554     S
V13     Ti14    10.0   1_455     S
Ti14     V11    10.0   1_655     S
Ti14     V13    10.0   1_655     S
Ti14     V15    10.0   .     S
V15     Ti2    10.0   1_544     S
V15     Ti3    10.0   1_554     S
V15     Ti7    10.0   1_545     S
