data_xbaa
_audit_creation_date              2020-02-02
_audit_creation_method            'Pymatgen'
_symmetry_space_group_name_H-M    'P1'
_symmetry_Int_Tables_number       1
loop_
_symmetry_equiv_pos_as_xyz
  x,y,z
_cell_length_a                    59.8304
_cell_length_b                    59.8304
_cell_length_c                    59.8304
_cell_angle_alpha                 90.0
_cell_angle_beta                 90.0
_cell_angle_gamma                 90.0
loop_
_atom_site_label
_atom_site_type_symbol
_atom_site_fract_x
_atom_site_fract_y
_atom_site_fract_z
V1     V     0.4164   0.5836   0.5836
V2     V     0.5836   0.5836   0.5836
V3     V     0.4164   0.5836   0.4164
V4     V     0.5836   0.5836   0.4164
V5     V     0.5836   0.4164   0.5836
V6     V     0.5836   0.4164   0.4164
V7     V     0.4164   0.4164   0.5836
V8     V     0.4164   0.4164   0.4164
Ce9     Ce     0.6801   0.7982   0.7982
Ce10     Ce     0.7982   0.7982   0.6801
Ce11     Ce     0.7982   0.6801   0.7982
Er12     Er     0.6801   0.6801   0.6801
Ce13     Ce     0.2018   0.7982   0.3199
Ce14     Ce     0.3199   0.7982   0.2018
Ce15     Ce     0.2018   0.6801   0.2018
Er16     Er     0.3199   0.6801   0.3199
Ti17     Ti     0.9164   0.6784   0.0836
Ti18     Ti     0.9164   0.6784   0.9164
Ti19     Ti     0.0836   0.6784   0.9164
Ti20     Ti     0.0836   0.6784   0.0836
Ce21     Ce     0.7982   0.6801   0.2018
Ce22     Ce     0.6801   0.7982   0.2018
Ce23     Ce     0.7982   0.7982   0.3199
Er24     Er     0.6801   0.6801   0.3199
Ti25     Ti     0.6784   0.9164   0.0836
Ti26     Ti     0.6784   0.9164   0.9164
Ti27     Ti     0.6784   0.0836   0.9164
Ti28     Ti     0.6784   0.0836   0.0836
Ce29     Ce     0.7982   0.3199   0.2018
Ce30     Ce     0.7982   0.2018   0.3199
Er31     Er     0.6801   0.3199   0.3199
Ce32     Ce     0.6801   0.2018   0.2018
Ti33     Ti     0.9164   0.3216   0.9164
Ti34     Ti     0.9164   0.3216   0.0836
Ti35     Ti     0.0836   0.3216   0.9164
Ti36     Ti     0.0836   0.3216   0.0836
Ce37     Ce     0.6801   0.2018   0.7982
Ce38     Ce     0.7982   0.2018   0.6801
Ce39     Ce     0.7982   0.3199   0.7982
Er40     Er     0.6801   0.3199   0.6801
Ce41     Ce     0.3199   0.2018   0.7982
Ce42     Ce     0.2018   0.3199   0.7982
Ce43     Ce     0.2018   0.2018   0.6801
Er44     Er     0.3199   0.3199   0.6801
Ti45     Ti     0.9164   0.9164   0.6784
Ti46     Ti     0.9164   0.0836   0.6784
Ti47     Ti     0.0836   0.9164   0.6784
Ti48     Ti     0.0836   0.0836   0.6784
Ce49     Ce     0.2018   0.6801   0.7982
Ce50     Ce     0.3199   0.7982   0.7982
Ce51     Ce     0.2018   0.7982   0.6801
Er52     Er     0.3199   0.6801   0.6801
Er53     Er     0.3199   0.3199   0.3199
Ce54     Ce     0.2018   0.2018   0.3199
Ce55     Ce     0.2018   0.3199   0.2018
Ce56     Ce     0.3199   0.2018   0.2018
Ti57     Ti     0.3216   0.9164   0.0836
Ti58     Ti     0.3216   0.9164   0.9164
Ti59     Ti     0.3216   0.0836   0.9164
Ti60     Ti     0.3216   0.0836   0.0836
Ti61     Ti     0.9164   0.9164   0.3216
Ti62     Ti     0.9164   0.0836   0.3216
Ti63     Ti     0.0836   0.9164   0.3216
Ti64     Ti     0.0836   0.0836   0.3216
loop_
_geom_bond_atom_site_label_1
_geom_bond_atom_site_label_2
_geom_bond_distance
_geom_bond_site_symmetry_2
_ccdc_geom_bond_type
V1     V3    10.0   .     S
V1     V7    10.0   .     S
V1     V2    10.0   .     S
V1     Er52    10.0   .     S
V2     V4    10.0   .     S
V2     V5    10.0   .     S
V2     Er12    10.0   .     S
V3     V8    10.0   .     S
V3     V4    10.0   .     S
V3     Er16    10.0   .     S
V4     V6    10.0   .     S
V4     Er24    10.0   .     S
V5     V6    10.0   .     S
V5     V7    10.0   .     S
V5     Er40    10.0   .     S
V6     V8    10.0   .     S
V6     Er31    10.0   .     S
V7     V8    10.0   .     S
V7     Er44    10.0   .     S
V8     Er53    10.0   .     S
Ce9     Er12    10.0   .     S
Ce9     Ce10    10.0   .     S
Ce9     Ce11    10.0   .     S
Ce9     Ti26    10.0   .     S
Ce10     Er12    10.0   .     S
Ce10     Ce11    10.0   .     S
Ce10     Ti45    10.0   .     S
Ce11     Er12    10.0   .     S
Ce11     Ti18    10.0   .     S
Ce13     Ce15    10.0   .     S
Ce13     Ce14    10.0   .     S
Ce13     Er16    10.0   .     S
Ce13     Ti63    10.0   .     S
Ce14     Ce15    10.0   .     S
Ce14     Er16    10.0   .     S
Ce14     Ti57    10.0   .     S
Ce15     Er16    10.0   .     S
Ce15     Ti20    10.0   .     S
Ti17     Ti20    10.0   1_655     S
Ti17     Ti18    10.0   1_554     S
Ti17     Ce21    10.0   .     S
Ti18     Ti19    10.0   1_655     S
Ti18     Ti17    10.0   1_556     S
Ti19     Ti18    10.0   1_455     S
Ti19     Ti20    10.0   1_556     S
Ti19     Ce49    10.0   .     S
Ti20     Ti17    10.0   1_455     S
Ti20     Ti19    10.0   1_554     S
Ce21     Er24    10.0   .     S
Ce21     Ce23    10.0   .     S
Ce21     Ce22    10.0   .     S
Ce22     Er24    10.0   .     S
Ce22     Ce23    10.0   .     S
Ce22     Ti25    10.0   .     S
Ce23     Er24    10.0   .     S
Ce23     Ti61    10.0   .     S
Ti25     Ti28    10.0   1_565     S
Ti25     Ti26    10.0   1_554     S
Ti26     Ti27    10.0   1_565     S
Ti26     Ti25    10.0   1_556     S
Ti27     Ti26    10.0   1_545     S
Ti27     Ti28    10.0   1_556     S
Ti27     Ce37    10.0   .     S
Ti28     Ti25    10.0   1_545     S
Ti28     Ti27    10.0   1_554     S
Ti28     Ce32    10.0   .     S
Ce29     Ce32    10.0   .     S
Ce29     Ce30    10.0   .     S
Ce29     Er31    10.0   .     S
Ce29     Ti34    10.0   .     S
Ce30     Ce32    10.0   .     S
Ce30     Er31    10.0   .     S
Ce30     Ti62    10.0   .     S
Er31     Ce32    10.0   .     S
Ti33     Ti34    10.0   1_556     S
Ti33     Ti35    10.0   1_655     S
Ti33     Ce39    10.0   .     S
Ti34     Ti33    10.0   1_554     S
Ti34     Ti36    10.0   1_655     S
Ti35     Ti33    10.0   1_455     S
Ti35     Ti36    10.0   1_556     S
Ti35     Ce42    10.0   .     S
Ti36     Ti34    10.0   1_455     S
Ti36     Ti35    10.0   1_554     S
Ti36     Ce55    10.0   .     S
Ce37     Er40    10.0   .     S
Ce37     Ce39    10.0   .     S
Ce37     Ce38    10.0   .     S
Ce38     Er40    10.0   .     S
Ce38     Ce39    10.0   .     S
Ce38     Ti46    10.0   .     S
Ce39     Er40    10.0   .     S
Ce41     Ce43    10.0   .     S
Ce41     Ce42    10.0   .     S
Ce41     Er44    10.0   .     S
Ce41     Ti59    10.0   .     S
Ce42     Ce43    10.0   .     S
Ce42     Er44    10.0   .     S
Ce43     Er44    10.0   .     S
Ce43     Ti48    10.0   .     S
Ti45     Ti46    10.0   1_565     S
Ti45     Ti47    10.0   1_655     S
Ti46     Ti45    10.0   1_545     S
Ti46     Ti48    10.0   1_655     S
Ti47     Ti45    10.0   1_455     S
Ti47     Ti48    10.0   1_565     S
Ti47     Ce51    10.0   .     S
Ti48     Ti46    10.0   1_455     S
Ti48     Ti47    10.0   1_545     S
Ce49     Er52    10.0   .     S
Ce49     Ce50    10.0   .     S
Ce49     Ce51    10.0   .     S
Ce50     Er52    10.0   .     S
Ce50     Ce51    10.0   .     S
Ce50     Ti58    10.0   .     S
Ce51     Er52    10.0   .     S
Er53     Ce54    10.0   .     S
Er53     Ce56    10.0   .     S
Er53     Ce55    10.0   .     S
Ce54     Ce55    10.0   .     S
Ce54     Ce56    10.0   .     S
Ce54     Ti64    10.0   .     S
Ce55     Ce56    10.0   .     S
Ce56     Ti60    10.0   .     S
Ti57     Ti60    10.0   1_565     S
Ti57     Ti58    10.0   1_554     S
Ti58     Ti59    10.0   1_565     S
Ti58     Ti57    10.0   1_556     S
Ti59     Ti58    10.0   1_545     S
Ti59     Ti60    10.0   1_556     S
Ti60     Ti57    10.0   1_545     S
Ti60     Ti59    10.0   1_554     S
Ti61     Ti62    10.0   1_565     S
Ti61     Ti63    10.0   1_655     S
Ti62     Ti61    10.0   1_545     S
Ti62     Ti64    10.0   1_655     S
Ti63     Ti61    10.0   1_455     S
Ti63     Ti64    10.0   1_565     S
Ti64     Ti62    10.0   1_455     S
Ti64     Ti63    10.0   1_545     S
