data_xbc
_audit_creation_date              2020-02-02
_audit_creation_method            'Pymatgen'
_symmetry_space_group_name_H-M    'P1'
_symmetry_Int_Tables_number       1
loop_
_symmetry_equiv_pos_as_xyz
  x,y,z
_cell_length_a                    35.2851
_cell_length_b                    35.2851
_cell_length_c                    35.2851
_cell_angle_alpha                 90.0
_cell_angle_beta                 90.0
_cell_angle_gamma                 90.0
loop_
_atom_site_label
_atom_site_type_symbol
_atom_site_fract_x
_atom_site_fract_y
_atom_site_fract_z
Er1     Er     0.6491   0.3509   0.1491
Er2     Er     0.6491   0.3509   0.8509
Er3     Er     0.3509   0.3509   0.1491
V4     V     0.5   0.5   0.0
Er5     Er     0.3509   0.3509   0.8509
Er6     Er     0.6491   0.6491   0.1491
Er7     Er     0.6491   0.6491   0.8509
Er8     Er     0.3509   0.6491   0.1491
Er9     Er     0.3509   0.6491   0.8509
Er10     Er     0.3509   0.1491   0.6491
Er11     Er     0.3509   0.8509   0.6491
Er12     Er     0.3509   0.1491   0.3509
V13     V     0.5   0.0   0.5
Er14     Er     0.3509   0.8509   0.3509
Er15     Er     0.6491   0.1491   0.6491
Er16     Er     0.6491   0.8509   0.6491
Er17     Er     0.6491   0.1491   0.3509
Er18     Er     0.6491   0.8509   0.3509
Er19     Er     0.1491   0.3509   0.6491
Er20     Er     0.8509   0.3509   0.6491
Er21     Er     0.1491   0.3509   0.3509
V22     V     0.0   0.5   0.5
Er23     Er     0.8509   0.3509   0.3509
Er24     Er     0.1491   0.6491   0.6491
Er25     Er     0.8509   0.6491   0.6491
Er26     Er     0.1491   0.6491   0.3509
Er27     Er     0.8509   0.6491   0.3509
V28     V     0.0   0.0   0.0
Er29     Er     0.1491   0.1491   0.1491
Er30     Er     0.8509   0.1491   0.1491
Er31     Er     0.1491   0.8509   0.1491
Er32     Er     0.1491   0.1491   0.8509
Er33     Er     0.8509   0.8509   0.1491
Er34     Er     0.1491   0.8509   0.8509
Er35     Er     0.8509   0.1491   0.8509
Er36     Er     0.8509   0.8509   0.8509
loop_
_geom_bond_atom_site_label_1
_geom_bond_atom_site_label_2
_geom_bond_distance
_geom_bond_site_symmetry_2
_ccdc_geom_bond_type
Er1     Er30    10.072   .     S
Er1     Er23    10.072   .     S
Er1     Er17    10.072   .     S
Er1     V4    9.111   .     S
Er1     Er2    10.521   1_554     S
Er1     Er6    10.521   .     S
Er1     Er3    10.521   .     S
Er2     Er35    10.072   .     S
Er2     Er15    10.072   .     S
Er2     Er20    10.072   .     S
Er2     V4    9.111   1_556     S
Er2     Er1    10.521   1_556     S
Er2     Er5    10.521   .     S
Er2     Er7    10.521   .     S
Er3     Er29    10.072   .     S
Er3     Er21    10.072   .     S
Er3     Er12    10.072   .     S
Er3     V4    9.111   .     S
Er3     Er5    10.521   1_554     S
Er3     Er8    10.521   .     S
V4     Er2    9.111   1_554     S
V4     Er5    9.111   1_554     S
V4     Er7    9.111   1_554     S
V4     Er6    9.111   .     S
V4     Er9    9.111   1_554     S
V4     Er8    9.111   .     S
Er5     Er32    10.072   .     S
Er5     Er19    10.072   .     S
Er5     Er10    10.072   .     S
Er5     V4    9.111   1_556     S
Er5     Er3    10.521   1_556     S
Er5     Er9    10.521   .     S
Er6     Er27    10.072   .     S
Er6     Er18    10.072   .     S
Er6     Er33    10.072   .     S
Er6     Er7    10.521   1_554     S
Er6     Er8    10.521   .     S
Er7     Er36    10.072   .     S
Er7     Er25    10.072   .     S
Er7     Er16    10.072   .     S
Er7     V4    9.111   1_556     S
Er7     Er6    10.521   1_556     S
Er7     Er9    10.521   .     S
Er8     Er31    10.072   .     S
Er8     Er26    10.072   .     S
Er8     Er14    10.072   .     S
Er8     Er9    10.521   1_554     S
Er9     Er34    10.072   .     S
Er9     Er24    10.072   .     S
Er9     Er11    10.072   .     S
Er9     V4    9.111   1_556     S
Er9     Er8    10.521   1_556     S
Er10     Er32    10.072   .     S
Er10     Er19    10.072   .     S
Er10     V13    9.111   .     S
Er10     Er11    10.521   1_545     S
Er10     Er15    10.521   .     S
Er10     Er12    10.521   .     S
Er11     Er34    10.072   .     S
Er11     Er24    10.072   .     S
Er11     V13    9.111   1_565     S
Er11     Er10    10.521   1_565     S
Er11     Er14    10.521   .     S
Er11     Er16    10.521   .     S
Er12     Er29    10.072   .     S
Er12     Er21    10.072   .     S
Er12     V13    9.111   .     S
Er12     Er14    10.521   1_545     S
Er12     Er17    10.521   .     S
V13     Er11    9.111   1_545     S
V13     Er14    9.111   1_545     S
V13     Er16    9.111   1_545     S
V13     Er15    9.111   .     S
V13     Er18    9.111   1_545     S
V13     Er17    9.111   .     S
Er14     Er31    10.072   .     S
Er14     Er26    10.072   .     S
Er14     V13    9.111   1_565     S
Er14     Er12    10.521   1_565     S
Er14     Er18    10.521   .     S
Er15     Er20    10.072   .     S
Er15     Er35    10.072   .     S
Er15     Er16    10.521   1_545     S
Er15     Er17    10.521   .     S
Er16     Er36    10.072   .     S
Er16     Er25    10.072   .     S
Er16     V13    9.111   1_565     S
Er16     Er15    10.521   1_565     S
Er16     Er18    10.521   .     S
Er17     Er30    10.072   .     S
Er17     Er23    10.072   .     S
Er17     Er18    10.521   1_545     S
Er18     Er33    10.072   .     S
Er18     Er27    10.072   .     S
Er18     V13    9.111   1_565     S
Er18     Er17    10.521   1_565     S
Er19     Er32    10.072   .     S
Er19     V22    9.111   .     S
Er19     Er20    10.521   1_455     S
Er19     Er24    10.521   .     S
Er19     Er21    10.521   .     S
Er20     Er35    10.072   .     S
Er20     V22    9.111   1_655     S
Er20     Er19    10.521   1_655     S
Er20     Er23    10.521   .     S
Er20     Er25    10.521   .     S
Er21     Er29    10.072   .     S
Er21     V22    9.111   .     S
Er21     Er23    10.521   1_455     S
Er21     Er26    10.521   .     S
V22     Er20    9.111   1_455     S
V22     Er23    9.111   1_455     S
V22     Er25    9.111   1_455     S
V22     Er24    9.111   .     S
V22     Er27    9.111   1_455     S
V22     Er26    9.111   .     S
Er23     Er30    10.072   .     S
Er23     V22    9.111   1_655     S
Er23     Er21    10.521   1_655     S
Er23     Er27    10.521   .     S
Er24     Er34    10.072   .     S
Er24     Er25    10.521   1_455     S
Er24     Er26    10.521   .     S
Er25     Er36    10.072   .     S
Er25     V22    9.111   1_655     S
Er25     Er24    10.521   1_655     S
Er25     Er27    10.521   .     S
Er26     Er31    10.072   .     S
Er26     Er27    10.521   1_455     S
Er27     Er33    10.072   .     S
Er27     V22    9.111   1_655     S
Er27     Er26    10.521   1_655     S
V28     Er36    9.111   1_444     S
V28     Er33    9.111   1_445     S
V28     Er34    9.111   1_544     S
V28     Er35    9.111   1_454     S
V28     Er29    9.111   .     S
V28     Er30    9.111   1_455     S
V28     Er31    9.111   1_545     S
V28     Er32    9.111   1_554     S
Er29     Er32    10.521   1_554     S
Er29     Er30    10.521   1_455     S
Er29     Er31    10.521   1_545     S
Er30     V28    9.111   1_655     S
Er30     Er29    10.521   1_655     S
Er30     Er35    10.521   1_554     S
Er30     Er33    10.521   1_545     S
Er31     V28    9.111   1_565     S
Er31     Er29    10.521   1_565     S
Er31     Er34    10.521   1_554     S
Er31     Er33    10.521   1_455     S
Er32     V28    9.111   1_556     S
Er32     Er29    10.521   1_556     S
Er32     Er34    10.521   1_545     S
Er32     Er35    10.521   1_455     S
Er33     V28    9.111   1_665     S
Er33     Er30    10.521   1_565     S
Er33     Er31    10.521   1_655     S
Er33     Er36    10.521   1_554     S
Er34     V28    9.111   1_566     S
Er34     Er31    10.521   1_556     S
Er34     Er32    10.521   1_565     S
Er34     Er36    10.521   1_455     S
Er35     V28    9.111   1_656     S
Er35     Er30    10.521   1_556     S
Er35     Er32    10.521   1_655     S
Er35     Er36    10.521   1_545     S
Er36     V28    9.111   1_666     S
Er36     Er33    10.521   1_556     S
Er36     Er34    10.521   1_655     S
Er36     Er35    10.521   1_565     S
