data_xbf
_audit_creation_date              2020-02-02
_audit_creation_method            'Pymatgen'
_symmetry_space_group_name_H-M    'P1'
_symmetry_Int_Tables_number       1
loop_
_symmetry_equiv_pos_as_xyz
  x,y,z
_cell_length_a                    44.4949
_cell_length_b                    44.4949
_cell_length_c                    44.4949
_cell_angle_alpha                 90.0
_cell_angle_beta                 90.0
_cell_angle_gamma                 90.0
loop_
_atom_site_label
_atom_site_type_symbol
_atom_site_fract_x
_atom_site_fract_y
_atom_site_fract_z
V1     V     0.0   0.25   0.75
V2     V     0.25   0.0   0.75
V3     V     0.0   0.75   0.25
V4     V     0.75   0.0   0.25
V5     V     0.75   0.25   0.0
V6     V     0.25   0.75   0.0
V7     V     0.75   0.75   0.0
V8     V     0.75   0.0   0.75
V9     V     0.0   0.75   0.75
Er10     Er     0.1124   0.8876   0.8876
Er11     Er     0.8876   0.8876   0.8876
Er12     Er     0.1124   0.8876   0.1124
Er13     Er     0.8876   0.8876   0.1124
Er14     Er     0.8876   0.1124   0.8876
Er15     Er     0.8876   0.1124   0.1124
Er16     Er     0.1124   0.1124   0.8876
Er17     Er     0.1124   0.1124   0.1124
V18     V     0.5   0.25   0.25
V19     V     0.25   0.25   0.5
V20     V     0.25   0.5   0.25
V21     V     0.25   0.25   0.0
V22     V     0.25   0.0   0.25
V23     V     0.5   0.75   0.75
V24     V     0.25   0.75   0.5
V25     V     0.5   0.75   0.25
Er26     Er     0.3876   0.8876   0.3876
Er27     Er     0.3876   0.1124   0.3876
Er28     Er     0.6124   0.8876   0.3876
Er29     Er     0.6124   0.1124   0.3876
Er30     Er     0.6124   0.8876   0.6124
Er31     Er     0.6124   0.1124   0.6124
Er32     Er     0.3876   0.1124   0.6124
Er33     Er     0.3876   0.8876   0.6124
V34     V     0.75   0.75   0.5
V35     V     0.25   0.5   0.75
V36     V     0.5   0.25   0.75
Er37     Er     0.6124   0.6124   0.1124
Er38     Er     0.6124   0.6124   0.8876
Er39     Er     0.3876   0.6124   0.1124
Er40     Er     0.3876   0.6124   0.8876
Er41     Er     0.6124   0.3876   0.8876
Er42     Er     0.6124   0.3876   0.1124
Er43     Er     0.3876   0.3876   0.8876
Er44     Er     0.3876   0.3876   0.1124
V45     V     0.75   0.5   0.75
V46     V     0.0   0.25   0.25
V47     V     0.75   0.25   0.5
V48     V     0.75   0.5   0.25
Er49     Er     0.1124   0.6124   0.3876
Er50     Er     0.8876   0.6124   0.3876
Er51     Er     0.8876   0.6124   0.6124
Er52     Er     0.1124   0.6124   0.6124
Er53     Er     0.8876   0.3876   0.3876
Er54     Er     0.1124   0.3876   0.3876
Er55     Er     0.8876   0.3876   0.6124
Er56     Er     0.1124   0.3876   0.6124
loop_
_geom_bond_atom_site_label_1
_geom_bond_atom_site_label_2
_geom_bond_distance
_geom_bond_site_symmetry_2
_ccdc_geom_bond_type
V1     Er55    10.0   1_455     S
V1     Er56    10.0   .     S
V1     Er14    10.0   1_455     S
V1     Er16    10.0   .     S
V2     Er33    10.0   1_545     S
V2     Er32    10.0   .     S
V2     Er10    10.0   1_545     S
V2     Er16    10.0   .     S
V3     Er50    10.0   1_455     S
V3     Er49    10.0   .     S
V3     Er13    10.0   1_455     S
V3     Er12    10.0   .     S
V4     Er28    10.0   1_545     S
V4     Er29    10.0   .     S
V4     Er13    10.0   1_545     S
V4     Er15    10.0   .     S
V5     Er41    10.0   1_554     S
V5     Er42    10.0   .     S
V5     Er14    10.0   1_554     S
V5     Er15    10.0   .     S
V6     Er40    10.0   1_554     S
V6     Er39    10.0   .     S
V6     Er10    10.0   1_554     S
V6     Er12    10.0   .     S
V7     Er38    10.0   1_554     S
V7     Er37    10.0   .     S
V7     Er11    10.0   1_554     S
V7     Er13    10.0   .     S
V8     Er30    10.0   1_545     S
V8     Er31    10.0   .     S
V8     Er11    10.0   1_545     S
V8     Er14    10.0   .     S
V9     Er51    10.0   1_455     S
V9     Er52    10.0   .     S
V9     Er11    10.0   1_455     S
V9     Er10    10.0   .     S
Er10     V2    10.0   1_565     S
Er10     V6    10.0   1_556     S
Er10     Er12    10.0   1_556     S
Er10     Er16    10.0   1_565     S
Er10     Er11    10.0   1_455     S
Er11     V7    10.0   1_556     S
Er11     V8    10.0   1_565     S
Er11     V9    10.0   1_655     S
Er11     Er13    10.0   1_556     S
Er11     Er10    10.0   1_655     S
Er11     Er14    10.0   1_565     S
Er12     Er10    10.0   1_554     S
Er12     Er17    10.0   1_565     S
Er12     Er13    10.0   1_455     S
Er12     V22    10.0   1_565     S
Er13     V3    10.0   1_655     S
Er13     V4    10.0   1_565     S
Er13     Er11    10.0   1_554     S
Er13     Er15    10.0   1_565     S
Er13     Er12    10.0   1_655     S
Er14     V1    10.0   1_655     S
Er14     V5    10.0   1_556     S
Er14     Er11    10.0   1_545     S
Er14     Er15    10.0   1_556     S
Er14     Er16    10.0   1_655     S
Er15     Er13    10.0   1_545     S
Er15     Er14    10.0   1_554     S
Er15     Er17    10.0   1_655     S
Er15     V46    10.0   1_655     S
Er16     Er10    10.0   1_545     S
Er16     Er14    10.0   1_455     S
Er16     Er17    10.0   1_556     S
Er16     V21    10.0   1_556     S
Er17     Er12    10.0   1_545     S
Er17     Er15    10.0   1_455     S
Er17     Er16    10.0   1_554     S
Er17     V21    10.0   .     S
Er17     V22    10.0   .     S
Er17     V46    10.0   .     S
V18     Er29    10.0   .     S
V18     Er42    10.0   .     S
V18     Er27    10.0   .     S
V18     Er44    10.0   .     S
V19     Er56    10.0   .     S
V19     Er32    10.0   .     S
V19     Er54    10.0   .     S
V19     Er27    10.0   .     S
V20     Er49    10.0   .     S
V20     Er39    10.0   .     S
V20     Er54    10.0   .     S
V20     Er44    10.0   .     S
V21     Er43    10.0   1_554     S
V21     Er44    10.0   .     S
V21     Er16    10.0   1_554     S
V22     Er26    10.0   1_545     S
V22     Er27    10.0   .     S
V22     Er12    10.0   1_545     S
V23     Er30    10.0   .     S
V23     Er38    10.0   .     S
V23     Er33    10.0   .     S
V23     Er40    10.0   .     S
V24     Er52    10.0   .     S
V24     Er49    10.0   .     S
V24     Er33    10.0   .     S
V24     Er26    10.0   .     S
V25     Er37    10.0   .     S
V25     Er28    10.0   .     S
V25     Er39    10.0   .     S
V25     Er26    10.0   .     S
Er26     V22    10.0   1_565     S
Er26     Er27    10.0   1_565     S
Er26     Er28    10.0   .     S
Er26     Er33    10.0   .     S
Er27     Er26    10.0   1_545     S
Er27     Er29    10.0   .     S
Er27     Er32    10.0   .     S
Er28     V4    10.0   1_565     S
Er28     Er29    10.0   1_565     S
Er28     Er30    10.0   .     S
Er28     V34    10.0   .     S
Er29     Er28    10.0   1_545     S
Er29     Er31    10.0   .     S
Er29     V47    10.0   .     S
Er30     V8    10.0   1_565     S
Er30     Er33    10.0   .     S
Er30     Er31    10.0   1_565     S
Er30     V34    10.0   .     S
Er31     Er30    10.0   1_545     S
Er31     Er32    10.0   .     S
Er31     V36    10.0   .     S
Er31     V47    10.0   .     S
Er32     Er33    10.0   1_545     S
Er32     V36    10.0   .     S
Er33     V2    10.0   1_565     S
Er33     Er32    10.0   1_565     S
V34     Er51    10.0   .     S
V34     Er50    10.0   .     S
V35     Er52    10.0   .     S
V35     Er56    10.0   .     S
V35     Er40    10.0   .     S
V35     Er43    10.0   .     S
V36     Er41    10.0   .     S
V36     Er43    10.0   .     S
Er37     Er39    10.0   .     S
Er37     Er42    10.0   .     S
Er37     Er38    10.0   1_554     S
Er37     V48    10.0   .     S
Er38     V7    10.0   1_556     S
Er38     Er37    10.0   1_556     S
Er38     Er41    10.0   .     S
Er38     Er40    10.0   .     S
Er38     V45    10.0   .     S
Er39     Er44    10.0   .     S
Er39     Er40    10.0   1_554     S
Er40     V6    10.0   1_556     S
Er40     Er39    10.0   1_556     S
Er40     Er43    10.0   .     S
Er41     V5    10.0   1_556     S
Er41     Er42    10.0   1_556     S
Er41     Er43    10.0   .     S
Er41     V45    10.0   .     S
Er42     Er41    10.0   1_554     S
Er42     Er44    10.0   .     S
Er42     V48    10.0   .     S
Er43     V21    10.0   1_556     S
Er43     Er44    10.0   1_556     S
Er44     Er43    10.0   1_554     S
V45     Er51    10.0   .     S
V45     Er55    10.0   .     S
V46     Er53    10.0   1_455     S
V46     Er54    10.0   .     S
V46     Er15    10.0   1_455     S
V47     Er55    10.0   .     S
V47     Er53    10.0   .     S
V48     Er50    10.0   .     S
V48     Er53    10.0   .     S
Er49     Er54    10.0   .     S
Er49     Er50    10.0   1_455     S
Er49     Er52    10.0   .     S
Er50     V3    10.0   1_655     S
Er50     Er49    10.0   1_655     S
Er50     Er53    10.0   .     S
Er50     Er51    10.0   .     S
Er51     V9    10.0   1_655     S
Er51     Er55    10.0   .     S
Er51     Er52    10.0   1_655     S
Er52     Er51    10.0   1_455     S
Er52     Er56    10.0   .     S
Er53     V46    10.0   1_655     S
Er53     Er54    10.0   1_655     S
Er53     Er55    10.0   .     S
Er54     Er53    10.0   1_455     S
Er54     Er56    10.0   .     S
Er55     V1    10.0   1_655     S
Er55     Er56    10.0   1_655     S
Er56     Er55    10.0   1_455     S
