data_xbka
_audit_creation_date              2020-02-02
_audit_creation_method            'Pymatgen'
_symmetry_space_group_name_H-M    'P1'
_symmetry_Int_Tables_number       1
loop_
_symmetry_equiv_pos_as_xyz
  x,y,z
_cell_length_a                    82.9372
_cell_length_b                    82.9372
_cell_length_c                    82.9372
_cell_angle_alpha                 90.0
_cell_angle_beta                 90.0
_cell_angle_gamma                 90.0
loop_
_atom_site_label
_atom_site_type_symbol
_atom_site_fract_x
_atom_site_fract_y
_atom_site_fract_z
V1     V     0.0   0.4147   0.9147
V2     V     0.9147   0.4147   0.0
V3     V     0.0   0.4147   0.0853
V4     V     0.0853   0.4147   0.0
V5     V     0.0   0.5853   0.0853
V6     V     0.9147   0.5   0.0853
V7     V     0.0853   0.5853   0.0
V8     V     0.0853   0.5   0.9147
V9     V     0.9147   0.5   0.9147
V10     V     0.0   0.5853   0.9147
V11     V     0.9147   0.5853   0.0
V12     V     0.0853   0.5   0.0853
V13     V     0.4147   0.0   0.9147
V14     V     0.4147   0.9147   0.0
V15     V     0.4147   0.0853   0.0
V16     V     0.4147   0.0   0.0853
V17     V     0.5853   0.0853   0.0
V18     V     0.5   0.0853   0.9147
V19     V     0.5853   0.0   0.0853
V20     V     0.5   0.9147   0.0853
V21     V     0.5   0.9147   0.9147
V22     V     0.5853   0.0   0.9147
V23     V     0.5853   0.9147   0.0
V24     V     0.5   0.0853   0.0853
V25     V     0.9147   0.0   0.4147
V26     V     0.0   0.9147   0.4147
V27     V     0.0   0.0853   0.4147
V28     V     0.0853   0.0   0.4147
V29     V     0.0853   0.0   0.5853
V30     V     0.0853   0.9147   0.5
V31     V     0.9147   0.0   0.5853
V32     V     0.0   0.9147   0.5853
V33     V     0.9147   0.9147   0.5
V34     V     0.9147   0.0853   0.5
V35     V     0.0   0.0853   0.5853
V36     V     0.0853   0.0853   0.5
V37     V     0.5853   0.5   0.4147
V38     V     0.5   0.5853   0.4147
V39     V     0.5853   0.5   0.5853
V40     V     0.5853   0.5853   0.5
V41     V     0.5   0.5853   0.5853
V42     V     0.5   0.4147   0.5853
V43     V     0.5853   0.4147   0.5
V44     V     0.4147   0.5853   0.5
V45     V     0.4147   0.5   0.5853
V46     V     0.4147   0.5   0.4147
V47     V     0.4147   0.4147   0.5
V48     V     0.5   0.4147   0.4147
Er49     Er     0.25   0.8352   0.25
Er50     Er     0.1648   0.75   0.25
Er51     Er     0.25   0.75   0.1648
Er52     Er     0.25   0.75   0.3352
Er53     Er     0.3352   0.75   0.25
Er54     Er     0.25   0.6648   0.25
Ti55     Ti     0.25   0.5443   0.25
Ti56     Ti     0.25   0.75   0.4557
Ti57     Ti     0.4557   0.75   0.25
Ti58     Ti     0.0443   0.75   0.25
Ti59     Ti     0.25   0.75   0.0443
Ti60     Ti     0.25   0.9557   0.25
Er61     Er     0.1648   0.25   0.25
Er62     Er     0.25   0.1648   0.25
Er63     Er     0.25   0.25   0.1648
Er64     Er     0.25   0.25   0.3352
Er65     Er     0.25   0.3352   0.25
Er66     Er     0.3352   0.25   0.25
Ti67     Ti     0.25   0.25   0.4557
Ti68     Ti     0.25   0.4557   0.25
Ti69     Ti     0.4557   0.25   0.25
Ti70     Ti     0.0443   0.25   0.25
Ti71     Ti     0.25   0.0443   0.25
Ti72     Ti     0.25   0.25   0.0443
Er73     Er     0.25   0.25   0.8352
Er74     Er     0.25   0.1648   0.75
Er75     Er     0.1648   0.25   0.75
Er76     Er     0.25   0.3352   0.75
Er77     Er     0.3352   0.25   0.75
Er78     Er     0.25   0.25   0.6648
Ti79     Ti     0.25   0.4557   0.75
Ti80     Ti     0.25   0.25   0.5443
Ti81     Ti     0.4557   0.25   0.75
Ti82     Ti     0.25   0.0443   0.75
Ti83     Ti     0.0443   0.25   0.75
Ti84     Ti     0.25   0.25   0.9557
Er85     Er     0.25   0.75   0.8352
Er86     Er     0.25   0.8352   0.75
Er87     Er     0.1648   0.75   0.75
Er88     Er     0.3352   0.75   0.75
Er89     Er     0.25   0.6648   0.75
Er90     Er     0.25   0.75   0.6648
Ti91     Ti     0.4557   0.75   0.75
Ti92     Ti     0.25   0.5443   0.75
Ti93     Ti     0.25   0.75   0.5443
Ti94     Ti     0.0443   0.75   0.75
Ti95     Ti     0.25   0.9557   0.75
Ti96     Ti     0.25   0.75   0.9557
Er97     Er     0.75   0.75   0.8352
Er98     Er     0.75   0.8352   0.75
Er99     Er     0.8352   0.75   0.75
Er100     Er     0.75   0.6648   0.75
Er101     Er     0.75   0.75   0.6648
Er102     Er     0.6648   0.75   0.75
Ti103     Ti     0.75   0.5443   0.75
Ti104     Ti     0.75   0.75   0.5443
Ti105     Ti     0.5443   0.75   0.75
Ti106     Ti     0.75   0.9557   0.75
Ti107     Ti     0.9557   0.75   0.75
Ti108     Ti     0.75   0.75   0.9557
Er109     Er     0.75   0.25   0.8352
Er110     Er     0.8352   0.25   0.75
Er111     Er     0.75   0.1648   0.75
Er112     Er     0.75   0.3352   0.75
Er113     Er     0.75   0.25   0.6648
Er114     Er     0.6648   0.25   0.75
Ti115     Ti     0.75   0.25   0.5443
Ti116     Ti     0.75   0.4557   0.75
Ti117     Ti     0.5443   0.25   0.75
Ti118     Ti     0.75   0.0443   0.75
Ti119     Ti     0.9557   0.25   0.75
Ti120     Ti     0.75   0.25   0.9557
Er121     Er     0.8352   0.25   0.25
Er122     Er     0.75   0.1648   0.25
Er123     Er     0.75   0.25   0.1648
Er124     Er     0.75   0.3352   0.25
Er125     Er     0.75   0.25   0.3352
Er126     Er     0.6648   0.25   0.25
Ti127     Ti     0.75   0.4557   0.25
Ti128     Ti     0.75   0.25   0.4557
Ti129     Ti     0.5443   0.25   0.25
Ti130     Ti     0.75   0.0443   0.25
Ti131     Ti     0.75   0.25   0.0443
Ti132     Ti     0.9557   0.25   0.25
Er133     Er     0.8352   0.75   0.25
Er134     Er     0.75   0.8352   0.25
Er135     Er     0.75   0.75   0.1648
Er136     Er     0.75   0.75   0.3352
Er137     Er     0.75   0.6648   0.25
Er138     Er     0.6648   0.75   0.25
Ti139     Ti     0.75   0.5443   0.25
Ti140     Ti     0.75   0.75   0.4557
Ti141     Ti     0.5443   0.75   0.25
Ti142     Ti     0.75   0.75   0.0443
Ti143     Ti     0.9557   0.75   0.25
Ti144     Ti     0.75   0.9557   0.25
Ce145     Ce     0.8293   0.5   0.8293
Ce146     Ce     0.8293   0.8293   0.5
Ce147     Ce     0.5   0.8293   0.8293
Ce148     Ce     0.1707   0.5   0.8293
Ce149     Ce     0.1707   0.8293   0.5
Ce150     Ce     0.5   0.1707   0.8293
Ce151     Ce     0.8293   0.0   0.3293
Ce152     Ce     0.0   0.8293   0.3293
Ce153     Ce     0.0   0.8293   0.6707
Ce154     Ce     0.8293   0.0   0.6707
Ce155     Ce     0.3293   0.0   0.8293
Ce156     Ce     0.0   0.3293   0.8293
Ce157     Ce     0.6707   0.0   0.8293
Ce158     Ce     0.0   0.6707   0.8293
Ce159     Ce     0.8293   0.3293   0.0
Ce160     Ce     0.6707   0.8293   0.0
Ce161     Ce     0.8293   0.6707   0.0
Ce162     Ce     0.3293   0.8293   0.0
Ce163     Ce     0.8293   0.5   0.1707
Ce164     Ce     0.8293   0.1707   0.5
Ce165     Ce     0.5   0.8293   0.1707
Ce166     Ce     0.1707   0.5   0.1707
Ce167     Ce     0.1707   0.1707   0.5
Ce168     Ce     0.5   0.1707   0.1707
Ce169     Ce     0.0   0.1707   0.3293
Ce170     Ce     0.1707   0.0   0.3293
Ce171     Ce     0.1707   0.0   0.6707
Ce172     Ce     0.0   0.1707   0.6707
Ce173     Ce     0.3293   0.0   0.1707
Ce174     Ce     0.0   0.3293   0.1707
Ce175     Ce     0.6707   0.0   0.1707
Ce176     Ce     0.0   0.6707   0.1707
Ce177     Ce     0.1707   0.3293   0.0
Ce178     Ce     0.1707   0.6707   0.0
Ce179     Ce     0.3293   0.1707   0.0
Ce180     Ce     0.6707   0.1707   0.0
Ce181     Ce     0.3293   0.5   0.6707
Ce182     Ce     0.6707   0.5   0.6707
Ce183     Ce     0.3293   0.6707   0.5
Ce184     Ce     0.6707   0.6707   0.5
Ce185     Ce     0.5   0.3293   0.6707
Ce186     Ce     0.5   0.6707   0.6707
Ce187     Ce     0.3293   0.5   0.3293
Ce188     Ce     0.6707   0.5   0.3293
Ce189     Ce     0.6707   0.3293   0.5
Ce190     Ce     0.3293   0.3293   0.5
Ce191     Ce     0.5   0.3293   0.3293
Ce192     Ce     0.5   0.6707   0.3293
loop_
_geom_bond_atom_site_label_1
_geom_bond_atom_site_label_2
_geom_bond_distance
_geom_bond_site_symmetry_2
_ccdc_geom_bond_type
V1     V2    10.001   1_456     S
V1     V4    10.001   1_556     S
V1     V9    10.001   1_455     S
V1     V8    10.001   .     S
V1     Ce156    10.018   .     S
V2     V1    10.001   1_654     S
V2     V3    10.001   1_655     S
V2     V9    10.001   1_554     S
V2     V6    10.001   .     S
V2     Ce159    10.018   .     S
V3     V2    10.001   1_455     S
V3     V4    10.001   .     S
V3     V6    10.001   1_455     S
V3     V12    10.001   .     S
V3     Ce174    10.018   .     S
V4     V1    10.001   1_554     S
V4     V8    10.001   1_554     S
V4     V12    10.001   .     S
V4     Ce177    10.018   .     S
V5     V6    10.001   1_455     S
V5     V11    10.001   1_455     S
V5     V12    10.001   .     S
V5     V7    10.001   .     S
V5     Ce176    10.018   .     S
V6     V5    10.001   1_655     S
V6     V3    10.001   1_655     S
V6     V11    10.001   .     S
V6     Ce163    10.018   .     S
V7     V8    10.001   1_554     S
V7     V10    10.001   1_554     S
V7     V12    10.001   .     S
V7     Ce178    10.018   .     S
V8     V7    10.001   1_556     S
V8     V4    10.001   1_556     S
V8     V10    10.001   .     S
V8     Ce148    10.018   .     S
V9     V1    10.001   1_655     S
V9     V10    10.001   1_655     S
V9     V2    10.001   1_556     S
V9     V11    10.001   1_556     S
V9     Ce145    10.018   .     S
V10     V9    10.001   1_455     S
V10     V11    10.001   1_456     S
V10     V7    10.001   1_556     S
V10     Ce158    10.018   .     S
V11     V10    10.001   1_654     S
V11     V9    10.001   1_554     S
V11     V5    10.001   1_655     S
V11     Ce161    10.018   .     S
V12     Ce166    10.018   .     S
V13     V14    10.001   1_546     S
V13     V15    10.001   1_556     S
V13     V21    10.001   1_545     S
V13     V18    10.001   .     S
V13     Ce155    10.018   .     S
V14     V13    10.001   1_564     S
V14     V16    10.001   1_565     S
V14     V21    10.001   1_554     S
V14     V20    10.001   .     S
V14     Ce162    10.018   .     S
V15     V13    10.001   1_554     S
V15     V16    10.001   .     S
V15     V18    10.001   1_554     S
V15     V24    10.001   .     S
V15     Ce179    10.018   .     S
V16     V14    10.001   1_545     S
V16     V20    10.001   1_545     S
V16     V24    10.001   .     S
V16     Ce173    10.018   .     S
V17     V18    10.001   1_554     S
V17     V22    10.001   1_554     S
V17     V24    10.001   .     S
V17     V19    10.001   .     S
V17     Ce180    10.018   .     S
V18     V17    10.001   1_556     S
V18     V15    10.001   1_556     S
V18     V22    10.001   .     S
V18     Ce150    10.018   .     S
V19     V20    10.001   1_545     S
V19     V23    10.001   1_545     S
V19     V24    10.001   .     S
V19     Ce175    10.018   .     S
V20     V19    10.001   1_565     S
V20     V16    10.001   1_565     S
V20     V23    10.001   .     S
V20     Ce165    10.018   .     S
V21     V13    10.001   1_565     S
V21     V22    10.001   1_565     S
V21     V23    10.001   1_556     S
V21     V14    10.001   1_556     S
V21     Ce147    10.018   .     S
V22     V21    10.001   1_545     S
V22     V23    10.001   1_546     S
V22     V17    10.001   1_556     S
V22     Ce157    10.018   .     S
V23     V22    10.001   1_564     S
V23     V21    10.001   1_554     S
V23     V19    10.001   1_565     S
V23     Ce160    10.018   .     S
V24     Ce168    10.018   .     S
V25     V26    10.001   1_645     S
V25     V27    10.001   1_655     S
V25     V33    10.001   1_545     S
V25     V34    10.001   .     S
V25     Ce151    10.018   .     S
V26     V25    10.001   1_465     S
V26     V28    10.001   1_565     S
V26     V33    10.001   1_455     S
V26     V30    10.001   .     S
V26     Ce152    10.018   .     S
V27     V25    10.001   1_455     S
V27     V28    10.001   .     S
V27     V34    10.001   1_455     S
V27     V36    10.001   .     S
V27     Ce169    10.018   .     S
V28     V26    10.001   1_545     S
V28     V30    10.001   1_545     S
V28     V36    10.001   .     S
V28     Ce170    10.018   .     S
V29     V30    10.001   1_545     S
V29     V32    10.001   1_545     S
V29     V36    10.001   .     S
V29     V35    10.001   .     S
V29     Ce171    10.018   .     S
V30     V29    10.001   1_565     S
V30     V28    10.001   1_565     S
V30     V32    10.001   .     S
V30     Ce149    10.018   .     S
V31     V32    10.001   1_645     S
V31     V33    10.001   1_545     S
V31     V35    10.001   1_655     S
V31     V34    10.001   .     S
V31     Ce154    10.018   .     S
V32     V31    10.001   1_465     S
V32     V33    10.001   1_455     S
V32     V29    10.001   1_565     S
V32     Ce153    10.018   .     S
V33     V32    10.001   1_655     S
V33     V26    10.001   1_655     S
V33     V25    10.001   1_565     S
V33     V31    10.001   1_565     S
V33     Ce146    10.018   .     S
V34     V27    10.001   1_655     S
V34     V35    10.001   1_655     S
V34     Ce164    10.018   .     S
V35     V34    10.001   1_455     S
V35     V31    10.001   1_455     S
V35     V36    10.001   .     S
V35     Ce172    10.018   .     S
V36     Ce167    10.018   .     S
V37     V38    10.001   .     S
V37     V48    10.001   .     S
V37     V40    10.001   .     S
V37     V43    10.001   .     S
V37     Ce188    10.018   .     S
V38     V46    10.001   .     S
V38     V40    10.001   .     S
V38     V44    10.001   .     S
V38     Ce192    10.018   .     S
V39     V43    10.001   .     S
V39     V40    10.001   .     S
V39     V42    10.001   .     S
V39     V41    10.001   .     S
V39     Ce182    10.018   .     S
V40     V41    10.001   .     S
V40     Ce184    10.018   .     S
V41     V44    10.001   .     S
V41     V45    10.001   .     S
V41     Ce186    10.018   .     S
V42     V47    10.001   .     S
V42     V43    10.001   .     S
V42     V45    10.001   .     S
V42     Ce185    10.018   .     S
V43     V48    10.001   .     S
V43     Ce189    10.018   .     S
V44     V46    10.001   .     S
V44     V45    10.001   .     S
V44     Ce183    10.018   .     S
V45     V47    10.001   .     S
V45     Ce181    10.018   .     S
V46     V47    10.001   .     S
V46     V48    10.001   .     S
V46     Ce187    10.018   .     S
V47     V48    10.001   .     S
V47     Ce190    10.018   .     S
V48     Ce191    10.018   .     S
Er49     Ti60    9.998   .     S
Er49     Er50    9.988   .     S
Er49     Er51    9.988   .     S
Er49     Er53    9.988   .     S
Er49     Er52    9.988   .     S
Er50     Ti58    9.998   .     S
Er50     Er51    9.988   .     S
Er50     Er54    9.988   .     S
Er50     Er52    9.988   .     S
Er51     Ti59    9.998   .     S
Er51     Er53    9.988   .     S
Er51     Er54    9.988   .     S
Er52     Ti56    9.998   .     S
Er52     Er54    9.988   .     S
Er52     Er53    9.988   .     S
Er53     Ti57    9.998   .     S
Er53     Er54    9.988   .     S
Er54     Ti55    9.998   .     S
Ti55     Ce166    10.002   .     S
Ti55     Ce187    10.002   .     S
Ti56     Ce149    10.002   .     S
Ti56     Ce183    10.002   .     S
Ti57     Ce165    10.002   .     S
Ti57     Ce192    10.002   .     S
Ti58     Ce152    10.002   .     S
Ti58     Ce176    10.002   .     S
Ti59     Ce162    10.002   .     S
Ti59     Ce178    10.002   .     S
Ti60     Ce170    10.002   1_565     S
Ti60     Ce173    10.002   1_565     S
Er61     Ti70    9.998   .     S
Er61     Er65    9.988   .     S
Er61     Er63    9.988   .     S
Er61     Er62    9.988   .     S
Er61     Er64    9.988   .     S
Er62     Ti71    9.998   .     S
Er62     Er63    9.988   .     S
Er62     Er66    9.988   .     S
Er62     Er64    9.988   .     S
Er63     Ti72    9.998   .     S
Er63     Er65    9.988   .     S
Er63     Er66    9.988   .     S
Er64     Ti67    9.998   .     S
Er64     Er65    9.988   .     S
Er64     Er66    9.988   .     S
Er65     Ti68    9.998   .     S
Er65     Er66    9.988   .     S
Er66     Ti69    9.998   .     S
Ti67     Ce167    10.002   .     S
Ti67     Ce190    10.002   .     S
Ti68     Ce166    10.002   .     S
Ti68     Ce187    10.002   .     S
Ti69     Ce168    10.002   .     S
Ti69     Ce191    10.002   .     S
Ti70     Ce174    10.002   .     S
Ti70     Ce169    10.002   .     S
Ti71     Ce170    10.002   .     S
Ti71     Ce173    10.002   .     S
Ti72     Ce179    10.002   .     S
Ti72     Ce177    10.002   .     S
Er73     Ti84    9.998   .     S
Er73     Er75    9.988   .     S
Er73     Er74    9.988   .     S
Er73     Er77    9.988   .     S
Er73     Er76    9.988   .     S
Er74     Ti82    9.998   .     S
Er74     Er75    9.988   .     S
Er74     Er78    9.988   .     S
Er74     Er77    9.988   .     S
Er75     Ti83    9.998   .     S
Er75     Er76    9.988   .     S
Er75     Er78    9.988   .     S
Er76     Ti79    9.998   .     S
Er76     Er78    9.988   .     S
Er76     Er77    9.988   .     S
Er77     Ti81    9.998   .     S
Er77     Er78    9.988   .     S
Er78     Ti80    9.998   .     S
Ti79     Ce148    10.002   .     S
Ti79     Ce181    10.002   .     S
Ti80     Ce167    10.002   .     S
Ti80     Ce190    10.002   .     S
Ti81     Ce150    10.002   .     S
Ti81     Ce185    10.002   .     S
Ti82     Ce155    10.002   .     S
Ti82     Ce171    10.002   .     S
Ti83     Ce156    10.002   .     S
Ti83     Ce172    10.002   .     S
Ti84     Ce179    10.002   1_556     S
Ti84     Ce177    10.002   1_556     S
Er85     Ti96    9.998   .     S
Er85     Er89    9.988   .     S
Er85     Er87    9.988   .     S
Er85     Er88    9.988   .     S
Er85     Er86    9.988   .     S
Er86     Ti95    9.998   .     S
Er86     Er90    9.988   .     S
Er86     Er87    9.988   .     S
Er86     Er88    9.988   .     S
Er87     Ti94    9.998   .     S
Er87     Er89    9.988   .     S
Er87     Er90    9.988   .     S
Er88     Ti91    9.998   .     S
Er88     Er90    9.988   .     S
Er88     Er89    9.988   .     S
Er89     Ti92    9.998   .     S
Er89     Er90    9.988   .     S
Er90     Ti93    9.998   .     S
Ti91     Ce147    10.002   .     S
Ti91     Ce186    10.002   .     S
Ti92     Ce148    10.002   .     S
Ti92     Ce181    10.002   .     S
Ti93     Ce149    10.002   .     S
Ti93     Ce183    10.002   .     S
Ti94     Ce158    10.002   .     S
Ti94     Ce153    10.002   .     S
Ti95     Ce155    10.002   1_565     S
Ti95     Ce171    10.002   1_565     S
Ti96     Ce162    10.002   1_556     S
Ti96     Ce178    10.002   1_556     S
Er97     Ti108    9.998   .     S
Er97     Er102    9.988   .     S
Er97     Er100    9.988   .     S
Er97     Er99    9.988   .     S
Er97     Er98    9.988   .     S
Er98     Ti106    9.998   .     S
Er98     Er102    9.988   .     S
Er98     Er101    9.988   .     S
Er98     Er99    9.988   .     S
Er99     Ti107    9.998   .     S
Er99     Er100    9.988   .     S
Er99     Er101    9.988   .     S
Er100     Ti103    9.998   .     S
Er100     Er101    9.988   .     S
Er100     Er102    9.988   .     S
Er101     Ti104    9.998   .     S
Er101     Er102    9.988   .     S
Er102     Ti105    9.998   .     S
Ti103     Ce145    10.002   .     S
Ti103     Ce182    10.002   .     S
Ti104     Ce146    10.002   .     S
Ti104     Ce184    10.002   .     S
Ti105     Ce147    10.002   .     S
Ti105     Ce186    10.002   .     S
Ti106     Ce154    10.002   1_565     S
Ti106     Ce157    10.002   1_565     S
Ti107     Ce158    10.002   1_655     S
Ti107     Ce153    10.002   1_655     S
Ti108     Ce160    10.002   1_556     S
Ti108     Ce161    10.002   1_556     S
Er109     Ti120    9.998   .     S
Er109     Er114    9.988   .     S
Er109     Er111    9.988   .     S
Er109     Er112    9.988   .     S
Er109     Er110    9.988   .     S
Er110     Ti119    9.998   .     S
Er110     Er113    9.988   .     S
Er110     Er111    9.988   .     S
Er110     Er112    9.988   .     S
Er111     Ti118    9.998   .     S
Er111     Er114    9.988   .     S
Er111     Er113    9.988   .     S
Er112     Ti116    9.998   .     S
Er112     Er113    9.988   .     S
Er112     Er114    9.988   .     S
Er113     Ti115    9.998   .     S
Er113     Er114    9.988   .     S
Er114     Ti117    9.998   .     S
Ti115     Ce164    10.002   .     S
Ti115     Ce189    10.002   .     S
Ti116     Ce145    10.002   .     S
Ti116     Ce182    10.002   .     S
Ti117     Ce150    10.002   .     S
Ti117     Ce185    10.002   .     S
Ti118     Ce154    10.002   .     S
Ti118     Ce157    10.002   .     S
Ti119     Ce156    10.002   1_655     S
Ti119     Ce172    10.002   1_655     S
Ti120     Ce159    10.002   1_556     S
Ti120     Ce180    10.002   1_556     S
Er121     Ti132    9.998   .     S
Er121     Er122    9.988   .     S
Er121     Er123    9.988   .     S
Er121     Er124    9.988   .     S
Er121     Er125    9.988   .     S
Er122     Ti130    9.998   .     S
Er122     Er123    9.988   .     S
Er122     Er126    9.988   .     S
Er122     Er125    9.988   .     S
Er123     Ti131    9.998   .     S
Er123     Er126    9.988   .     S
Er123     Er124    9.988   .     S
Er124     Ti127    9.998   .     S
Er124     Er125    9.988   .     S
Er124     Er126    9.988   .     S
Er125     Ti128    9.998   .     S
Er125     Er126    9.988   .     S
Er126     Ti129    9.998   .     S
Ti127     Ce163    10.002   .     S
Ti127     Ce188    10.002   .     S
Ti128     Ce164    10.002   .     S
Ti128     Ce189    10.002   .     S
Ti129     Ce168    10.002   .     S
Ti129     Ce191    10.002   .     S
Ti130     Ce151    10.002   .     S
Ti130     Ce175    10.002   .     S
Ti131     Ce159    10.002   .     S
Ti131     Ce180    10.002   .     S
Ti132     Ce174    10.002   1_655     S
Ti132     Ce169    10.002   1_655     S
Er133     Ti143    9.998   .     S
Er133     Er137    9.988   .     S
Er133     Er135    9.988   .     S
Er133     Er136    9.988   .     S
Er133     Er134    9.988   .     S
Er134     Ti144    9.998   .     S
Er134     Er138    9.988   .     S
Er134     Er135    9.988   .     S
Er134     Er136    9.988   .     S
Er135     Ti142    9.998   .     S
Er135     Er137    9.988   .     S
Er135     Er138    9.988   .     S
Er136     Ti140    9.998   .     S
Er136     Er137    9.988   .     S
Er136     Er138    9.988   .     S
Er137     Ti139    9.998   .     S
Er137     Er138    9.988   .     S
Er138     Ti141    9.998   .     S
Ti139     Ce163    10.002   .     S
Ti139     Ce188    10.002   .     S
Ti140     Ce146    10.002   .     S
Ti140     Ce184    10.002   .     S
Ti141     Ce165    10.002   .     S
Ti141     Ce192    10.002   .     S
Ti142     Ce160    10.002   .     S
Ti142     Ce161    10.002   .     S
Ti143     Ce152    10.002   1_655     S
Ti143     Ce176    10.002   1_655     S
Ti144     Ce151    10.002   1_565     S
Ti144     Ce175    10.002   1_565     S
Ce151     Ti144    10.002   1_545     S
Ce152     Ti143    10.002   1_455     S
Ce153     Ti107    10.002   1_455     S
Ce154     Ti106    10.002   1_545     S
Ce155     Ti95    10.002   1_545     S
Ce156     Ti119    10.002   1_455     S
Ce157     Ti106    10.002   1_545     S
Ce158     Ti107    10.002   1_455     S
Ce159     Ti120    10.002   1_554     S
Ce160     Ti108    10.002   1_554     S
Ce161     Ti108    10.002   1_554     S
Ce162     Ti96    10.002   1_554     S
Ce169     Ti132    10.002   1_455     S
Ce170     Ti60    10.002   1_545     S
Ce171     Ti95    10.002   1_545     S
Ce172     Ti119    10.002   1_455     S
Ce173     Ti60    10.002   1_545     S
Ce174     Ti132    10.002   1_455     S
Ce175     Ti144    10.002   1_545     S
Ce176     Ti143    10.002   1_455     S
Ce177     Ti84    10.002   1_554     S
Ce178     Ti96    10.002   1_554     S
Ce179     Ti84    10.002   1_554     S
Ce180     Ti120    10.002   1_554     S
