data_xbo
_audit_creation_date              2020-02-02
_audit_creation_method            'Pymatgen'
_symmetry_space_group_name_H-M    'P1'
_symmetry_Int_Tables_number       1
loop_
_symmetry_equiv_pos_as_xyz
  x,y,z
_cell_length_a                    15.6722
_cell_length_b                    15.6722
_cell_length_c                    15.6722
_cell_angle_alpha                 90.0
_cell_angle_beta                 90.0
_cell_angle_gamma                 90.0
loop_
_atom_site_label
_atom_site_type_symbol
_atom_site_fract_x
_atom_site_fract_y
_atom_site_fract_z
V1     V     0.0   0.5   0.0
V2     V     0.5   0.0   0.0
V3     V     0.0   0.0   0.5
Ti4     Ti     0.0   0.0   0.0
Er5     Er     0.5   0.5   0.5
loop_
_geom_bond_atom_site_label_1
_geom_bond_atom_site_label_2
_geom_bond_distance
_geom_bond_site_symmetry_2
_ccdc_geom_bond_type
V1     Er5    11.082   1_554     S
V1     Er5    11.082   1_455     S
V1     Er5    11.082   .     S
V1     Er5    11.082   1_454     S
V1     Ti4    7.836   1_565     S
V1     Ti4    7.836   .     S
V2     Er5    11.082   .     S
V2     Er5    11.082   1_545     S
V2     Er5    11.082   1_544     S
V2     Er5    11.082   1_554     S
V2     Ti4    7.836   1_655     S
V2     Ti4    7.836   .     S
V3     Er5    11.082   .     S
V3     Er5    11.082   1_455     S
V3     Er5    11.082   1_445     S
V3     Er5    11.082   1_545     S
V3     Ti4    7.836   1_556     S
V3     Ti4    7.836   .     S
Ti4     V1    7.836   1_545     S
Ti4     V2    7.836   1_455     S
Ti4     V3    7.836   1_554     S
Er5     V1    11.082   1_556     S
Er5     V3    11.082   1_655     S
Er5     V3    11.082   1_665     S
Er5     V3    11.082   1_565     S
Er5     V1    11.082   1_655     S
Er5     V2    11.082   1_565     S
Er5     V2    11.082   1_566     S
Er5     V2    11.082   1_556     S
Er5     V1    11.082   1_656     S
