data_xbpa
_audit_creation_date              2020-02-02
_audit_creation_method            'Pymatgen'
_symmetry_space_group_name_H-M    'P1'
_symmetry_Int_Tables_number       1
loop_
_symmetry_equiv_pos_as_xyz
  x,y,z
_cell_length_a                    58.1111
_cell_length_b                    58.1111
_cell_length_c                    58.1111
_cell_angle_alpha                 90.0
_cell_angle_beta                 90.0
_cell_angle_gamma                 90.0
loop_
_atom_site_label
_atom_site_type_symbol
_atom_site_fract_x
_atom_site_fract_y
_atom_site_fract_z
Er1     Er     0.6216   0.5   0.5
Er2     Er     0.5   0.6216   0.5
Er3     Er     0.5   0.5   0.6216
Er4     Er     0.3784   0.5   0.5
Er5     Er     0.5   0.3784   0.5
Er6     Er     0.5   0.5   0.3784
Er7     Er     0.5   0.0   0.8784
Er8     Er     0.5   0.8784   0.0
Er9     Er     0.6216   0.0   0.0
Er10     Er     0.5   0.0   0.1216
Er11     Er     0.5   0.1216   0.0
Er12     Er     0.3784   0.0   0.0
Er13     Er     0.0   0.8784   0.5
Er14     Er     0.8784   0.0   0.5
Er15     Er     0.0   0.0   0.6216
Er16     Er     0.0   0.1216   0.5
Er17     Er     0.1216   0.0   0.5
Er18     Er     0.0   0.0   0.3784
Er19     Er     0.0   0.5   0.8784
Er20     Er     0.8784   0.5   0.0
Er21     Er     0.0   0.6216   0.0
Er22     Er     0.0   0.5   0.1216
Er23     Er     0.1216   0.5   0.0
Er24     Er     0.0   0.3784   0.0
Ti25     Ti     0.6892   0.1892   0.6892
Ti26     Ti     0.8108   0.3108   0.6892
Ti27     Ti     0.8108   0.1892   0.8108
Ti28     Ti     0.6892   0.3108   0.8108
Ce29     Ce     0.9101   0.0899   0.9101
Ce30     Ce     0.9101   0.4101   0.5899
Ce31     Ce     0.5899   0.4101   0.9101
Ce32     Ce     0.5899   0.0899   0.5899
V33     V     0.5   0.0   0.706
V34     V     0.706   0.0   0.5
Ti35     Ti     0.1892   0.6892   0.6892
Ti36     Ti     0.3108   0.6892   0.8108
Ti37     Ti     0.1892   0.8108   0.8108
Ti38     Ti     0.3108   0.8108   0.6892
Ce39     Ce     0.0899   0.9101   0.9101
Ce40     Ce     0.4101   0.9101   0.5899
Ce41     Ce     0.4101   0.5899   0.9101
Ce42     Ce     0.0899   0.5899   0.5899
V43     V     0.0   0.706   0.5
V44     V     0.0   0.5   0.706
Ti45     Ti     0.1892   0.1892   0.1892
Ti46     Ti     0.1892   0.3108   0.3108
Ti47     Ti     0.3108   0.1892   0.3108
Ti48     Ti     0.3108   0.3108   0.1892
Ce49     Ce     0.0899   0.0899   0.0899
Ce50     Ce     0.0899   0.4101   0.4101
Ce51     Ce     0.4101   0.0899   0.4101
Ce52     Ce     0.4101   0.4101   0.0899
V53     V     0.0   0.5   0.294
V54     V     0.0   0.294   0.5
V55     V     0.5   0.0   0.294
V56     V     0.294   0.0   0.5
V57     V     0.5   0.294   0.0
V58     V     0.294   0.5   0.0
Ti59     Ti     0.8108   0.6892   0.3108
Ti60     Ti     0.8108   0.8108   0.1892
Ti61     Ti     0.6892   0.8108   0.3108
Ti62     Ti     0.6892   0.6892   0.1892
Ce63     Ce     0.9101   0.9101   0.0899
Ce64     Ce     0.9101   0.5899   0.4101
Ce65     Ce     0.5899   0.9101   0.4101
Ce66     Ce     0.5899   0.5899   0.0899
V67     V     0.706   0.5   0.0
V68     V     0.5   0.706   0.0
V69     V     0.0   0.0   0.206
V70     V     0.206   0.0   0.0
V71     V     0.0   0.206   0.0
V72     V     0.206   0.5   0.5
V73     V     0.5   0.206   0.5
V74     V     0.5   0.5   0.206
V75     V     0.0   0.0   0.794
V76     V     0.0   0.794   0.0
V77     V     0.794   0.0   0.0
V78     V     0.794   0.5   0.5
V79     V     0.5   0.794   0.5
V80     V     0.5   0.5   0.794
loop_
_geom_bond_atom_site_label_1
_geom_bond_atom_site_label_2
_geom_bond_distance
_geom_bond_site_symmetry_2
_ccdc_geom_bond_type
Er1     Er6    9.992   .     S
Er1     Er5    9.992   .     S
Er1     Er3    9.992   .     S
Er1     Er2    9.992   .     S
Er1     V78    10.017   .     S
Er2     Er4    9.992   .     S
Er2     Er6    9.992   .     S
Er2     Er3    9.992   .     S
Er2     V79    10.017   .     S
Er3     Er4    9.992   .     S
Er3     Er5    9.992   .     S
Er3     V80    10.017   .     S
Er4     Er6    9.992   .     S
Er4     Er5    9.992   .     S
Er4     V72    10.017   .     S
Er5     Er6    9.992   .     S
Er5     V73    10.017   .     S
Er6     V74    10.017   .     S
Er7     Er12    9.992   1_556     S
Er7     Er11    9.992   1_556     S
Er7     Er9    9.992   1_556     S
Er7     Er8    9.992   1_546     S
Er7     V33    10.017   .     S
Er8     Er9    9.992   1_565     S
Er8     Er10    9.992   1_565     S
Er8     Er12    9.992   1_565     S
Er8     Er7    9.992   1_564     S
Er8     V68    10.017   .     S
Er9     Er8    9.992   1_545     S
Er9     Er7    9.992   1_554     S
Er9     Er10    9.992   .     S
Er9     Er11    9.992   .     S
Er9     V77    10.017   .     S
Er10     Er8    9.992   1_545     S
Er10     Er12    9.992   .     S
Er10     Er11    9.992   .     S
Er10     V55    10.017   .     S
Er11     Er7    9.992   1_554     S
Er11     Er12    9.992   .     S
Er11     V57    10.017   .     S
Er12     Er8    9.992   1_545     S
Er12     Er7    9.992   1_554     S
Er12     V70    10.017   .     S
Er13     Er18    9.992   1_565     S
Er13     Er17    9.992   1_565     S
Er13     Er15    9.992   1_565     S
Er13     Er14    9.992   1_465     S
Er13     V43    10.017   .     S
Er14     Er15    9.992   1_655     S
Er14     Er16    9.992   1_655     S
Er14     Er18    9.992   1_655     S
Er14     Er13    9.992   1_645     S
Er14     V34    10.017   .     S
Er15     Er14    9.992   1_455     S
Er15     Er13    9.992   1_545     S
Er15     Er17    9.992   .     S
Er15     Er16    9.992   .     S
Er15     V75    10.017   .     S
Er16     Er14    9.992   1_455     S
Er16     Er17    9.992   .     S
Er16     Er18    9.992   .     S
Er16     V54    10.017   .     S
Er17     Er13    9.992   1_545     S
Er17     Er18    9.992   .     S
Er17     V56    10.017   .     S
Er18     Er14    9.992   1_455     S
Er18     Er13    9.992   1_545     S
Er18     V69    10.017   .     S
Er19     Er21    9.992   1_556     S
Er19     Er23    9.992   1_556     S
Er19     Er24    9.992   1_556     S
Er19     Er20    9.992   1_456     S
Er19     V44    10.017   .     S
Er20     Er24    9.992   1_655     S
Er20     Er22    9.992   1_655     S
Er20     Er21    9.992   1_655     S
Er20     Er19    9.992   1_654     S
Er20     V67    10.017   .     S
Er21     Er20    9.992   1_455     S
Er21     Er19    9.992   1_554     S
Er21     Er22    9.992   .     S
Er21     Er23    9.992   .     S
Er21     V76    10.017   .     S
Er22     Er20    9.992   1_455     S
Er22     Er24    9.992   .     S
Er22     Er23    9.992   .     S
Er22     V53    10.017   .     S
Er23     Er19    9.992   1_554     S
Er23     Er24    9.992   .     S
Er23     V58    10.017   .     S
Er24     Er20    9.992   1_455     S
Er24     Er19    9.992   1_554     S
Er24     V71    10.017   .     S
Ti25     Ce32    9.998   .     S
Ti25     Ti26    9.987   .     S
Ti25     Ti27    9.987   .     S
Ti25     Ti28    9.987   .     S
Ti26     Ce30    9.998   .     S
Ti26     Ti27    9.987   .     S
Ti26     Ti28    9.987   .     S
Ti27     Ce29    9.998   .     S
Ti27     Ti28    9.987   .     S
Ti28     Ce31    9.998   .     S
Ce29     V75    10.007   1_655     S
Ce29     V77    10.007   1_556     S
Ce29     V71    10.007   1_656     S
Ce30     V78    10.007   .     S
Ce30     V44    10.007   1_655     S
Ce30     V54    10.007   1_655     S
Ce31     V80    10.007   .     S
Ce31     V67    10.007   1_556     S
Ce31     V57    10.007   1_556     S
Ce32     V33    10.007   .     S
Ce32     V34    10.007   .     S
Ce32     V73    10.007   .     S
V33     Ce40    10.007   1_545     S
V34     Ce65    10.007   1_545     S
Ti35     Ce42    9.998   .     S
Ti35     Ti36    9.987   .     S
Ti35     Ti37    9.987   .     S
Ti35     Ti38    9.987   .     S
Ti36     Ce41    9.998   .     S
Ti36     Ti37    9.987   .     S
Ti36     Ti38    9.987   .     S
Ti37     Ce39    9.998   .     S
Ti37     Ti38    9.987   .     S
Ti38     Ce40    9.998   .     S
Ce39     V75    10.007   1_565     S
Ce39     V76    10.007   1_556     S
Ce39     V70    10.007   1_566     S
Ce40     V79    10.007   .     S
Ce40     V33    10.007   1_565     S
Ce40     V56    10.007   1_565     S
Ce41     V80    10.007   .     S
Ce41     V68    10.007   1_556     S
Ce41     V58    10.007   1_556     S
Ce42     V43    10.007   .     S
Ce42     V44    10.007   .     S
Ce42     V72    10.007   .     S
V43     Ce64    10.007   1_455     S
V44     Ce30    10.007   1_455     S
Ti45     Ce49    9.998   .     S
Ti45     Ti46    9.987   .     S
Ti45     Ti47    9.987   .     S
Ti45     Ti48    9.987   .     S
Ti46     Ce50    9.998   .     S
Ti46     Ti48    9.987   .     S
Ti46     Ti47    9.987   .     S
Ti47     Ce51    9.998   .     S
Ti47     Ti48    9.987   .     S
Ti48     Ce52    9.998   .     S
Ce49     V69    10.007   .     S
Ce49     V70    10.007   .     S
Ce49     V71    10.007   .     S
Ce50     V72    10.007   .     S
Ce50     V53    10.007   .     S
Ce50     V54    10.007   .     S
Ce51     V73    10.007   .     S
Ce51     V55    10.007   .     S
Ce51     V56    10.007   .     S
Ce52     V74    10.007   .     S
Ce52     V58    10.007   .     S
Ce52     V57    10.007   .     S
V53     Ce64    10.007   1_455     S
V54     Ce30    10.007   1_455     S
V55     Ce65    10.007   1_545     S
V56     Ce40    10.007   1_545     S
V57     Ce31    10.007   1_554     S
V58     Ce41    10.007   1_554     S
Ti59     Ce64    9.998   .     S
Ti59     Ti60    9.987   .     S
Ti59     Ti62    9.987   .     S
Ti59     Ti61    9.987   .     S
Ti60     Ce63    9.998   .     S
Ti60     Ti61    9.987   .     S
Ti60     Ti62    9.987   .     S
Ti61     Ce65    9.998   .     S
Ti61     Ti62    9.987   .     S
Ti62     Ce66    9.998   .     S
Ce63     V77    10.007   1_565     S
Ce63     V76    10.007   1_655     S
Ce63     V69    10.007   1_665     S
Ce64     V78    10.007   .     S
Ce64     V43    10.007   1_655     S
Ce64     V53    10.007   1_655     S
Ce65     V79    10.007   .     S
Ce65     V34    10.007   1_565     S
Ce65     V55    10.007   1_565     S
Ce66     V67    10.007   .     S
Ce66     V68    10.007   .     S
Ce66     V74    10.007   .     S
V67     Ce31    10.007   1_554     S
V68     Ce41    10.007   1_554     S
V69     Ce63    10.007   1_445     S
V70     Ce39    10.007   1_544     S
V71     Ce29    10.007   1_454     S
V75     Ce29    10.007   1_455     S
V75     Ce39    10.007   1_545     S
V76     Ce39    10.007   1_554     S
V76     Ce63    10.007   1_455     S
V77     Ce29    10.007   1_554     S
V77     Ce63    10.007   1_545     S
