data_xbqa
_audit_creation_date              2020-02-02
_audit_creation_method            'Pymatgen'
_symmetry_space_group_name_H-M    'P1'
_symmetry_Int_Tables_number       1
loop_
_symmetry_equiv_pos_as_xyz
  x,y,z
_cell_length_a                    97.1706
_cell_length_b                    97.1706
_cell_length_c                    97.1706
_cell_angle_alpha                 90.0
_cell_angle_beta                 90.0
_cell_angle_gamma                 90.0
loop_
_atom_site_label
_atom_site_type_symbol
_atom_site_fract_x
_atom_site_fract_y
_atom_site_fract_z
Er1     Er     0.5   0.5   0.6757
Er2     Er     0.5   0.6757   0.5
Er3     Er     0.6757   0.5   0.5
Er4     Er     0.5   0.5   0.3243
Er5     Er     0.5   0.3243   0.5
Er6     Er     0.3243   0.5   0.5
V7     V     0.5728   0.5   0.5
V8     V     0.5   0.5728   0.5
V9     V     0.4272   0.5   0.5
V10     V     0.5   0.4272   0.5
V11     V     0.5   0.5   0.4272
V12     V     0.5   0.5   0.5728
Ti13     Ti     0.5364   0.5364   0.7648
Ti14     Ti     0.4636   0.4636   0.7648
Ce15     Ce     0.5781   0.5781   0.8491
Ce16     Ce     0.4219   0.4219   0.8491
Ce17     Ce     0.5781   0.6509   0.9219
Ti18     Ti     0.5364   0.7352   0.9636
Ti19     Ti     0.4636   0.7352   0.0364
Ce20     Ce     0.4219   0.6509   0.0781
Ce21     Ce     0.6509   0.5781   0.9219
Ti22     Ti     0.7352   0.5364   0.9636
Ti23     Ti     0.7352   0.4636   0.0364
Ce24     Ce     0.6509   0.4219   0.0781
Ce25     Ce     0.4219   0.5781   0.1509
Ti26     Ti     0.5364   0.4636   0.2352
Ti27     Ti     0.4636   0.5364   0.2352
Ce28     Ce     0.5781   0.4219   0.1509
Ti29     Ti     0.4636   0.2648   0.9636
Ti30     Ti     0.5364   0.2648   0.0364
Ce31     Ce     0.5781   0.3491   0.0781
Ce32     Ce     0.4219   0.3491   0.9219
Ti33     Ti     0.2648   0.4636   0.9636
Ti34     Ti     0.2648   0.5364   0.0364
Ce35     Ce     0.3491   0.5781   0.0781
Ce36     Ce     0.3491   0.4219   0.9219
Ti37     Ti     0.5364   0.7648   0.5364
Ti38     Ti     0.4636   0.7648   0.4636
Ce39     Ce     0.5781   0.8491   0.5781
Ce40     Ce     0.4219   0.8491   0.4219
Ce41     Ce     0.5781   0.9219   0.6509
Ti42     Ti     0.5364   0.9636   0.7352
Ti43     Ti     0.4636   0.0364   0.7352
Ce44     Ce     0.4219   0.0781   0.6509
Ce45     Ce     0.6509   0.9219   0.5781
Ti46     Ti     0.7352   0.9636   0.5364
Ti47     Ti     0.7352   0.0364   0.4636
Ce48     Ce     0.6509   0.0781   0.4219
Ce49     Ce     0.5781   0.1509   0.4219
Ti50     Ti     0.4636   0.2352   0.5364
Ti51     Ti     0.5364   0.2352   0.4636
Ce52     Ce     0.4219   0.1509   0.5781
Ti53     Ti     0.2648   0.9636   0.4636
Ti54     Ti     0.2648   0.0364   0.5364
Ce55     Ce     0.3491   0.0781   0.5781
Ce56     Ce     0.3491   0.9219   0.4219
Ti57     Ti     0.4636   0.9636   0.2648
Ti58     Ti     0.5364   0.0364   0.2648
Ce59     Ce     0.5781   0.0781   0.3491
Ce60     Ce     0.4219   0.9219   0.3491
Ti61     Ti     0.7648   0.5364   0.5364
Ti62     Ti     0.7648   0.4636   0.4636
Ce63     Ce     0.8491   0.5781   0.5781
Ce64     Ce     0.8491   0.4219   0.4219
Ce65     Ce     0.9219   0.5781   0.6509
Ti66     Ti     0.9636   0.5364   0.7352
Ti67     Ti     0.0364   0.4636   0.7352
Ce68     Ce     0.0781   0.4219   0.6509
Ce69     Ce     0.9219   0.6509   0.5781
Ti70     Ti     0.9636   0.7352   0.5364
Ti71     Ti     0.0364   0.7352   0.4636
Ce72     Ce     0.0781   0.6509   0.4219
Ce73     Ce     0.1509   0.4219   0.5781
Ti74     Ti     0.2352   0.5364   0.4636
Ti75     Ti     0.2352   0.4636   0.5364
Ce76     Ce     0.1509   0.5781   0.4219
Ti77     Ti     0.9636   0.2648   0.4636
Ti78     Ti     0.0364   0.2648   0.5364
Ce79     Ce     0.0781   0.3491   0.5781
Ce80     Ce     0.9219   0.3491   0.4219
Ti81     Ti     0.9636   0.4636   0.2648
Ti82     Ti     0.0364   0.5364   0.2648
Ce83     Ce     0.0781   0.5781   0.3491
Ce84     Ce     0.9219   0.4219   0.3491
Er85     Er     0.6757   0.0   0.0
Er86     Er     0.5   0.1757   0.0
Er87     Er     0.5   0.0   0.1757
Er88     Er     0.3243   0.0   0.0
Er89     Er     0.5   0.8243   0.0
Er90     Er     0.5   0.0   0.8243
V91     V     0.5728   0.0   0.0
V92     V     0.5   0.0   0.0728
V93     V     0.5   0.0728   0.0
V94     V     0.4272   0.0   0.0
V95     V     0.5   0.0   0.9272
V96     V     0.5   0.9272   0.0
Er97     Er     0.0   0.6757   0.0
Er98     Er     0.1757   0.5   0.0
Er99     Er     0.0   0.5   0.1757
Er100     Er     0.0   0.3243   0.0
Er101     Er     0.8243   0.5   0.0
Er102     Er     0.0   0.5   0.8243
V103     V     0.0   0.5728   0.0
V104     V     0.0   0.5   0.0728
V105     V     0.0728   0.5   0.0
V106     V     0.0   0.4272   0.0
V107     V     0.0   0.5   0.9272
V108     V     0.9272   0.5   0.0
Ti109     Ti     0.7648   0.9636   0.9636
Ti110     Ti     0.7648   0.0364   0.0364
Ce111     Ce     0.8491   0.0781   0.0781
Ce112     Ce     0.8491   0.9219   0.9219
Ti113     Ti     0.9636   0.7648   0.9636
Ti114     Ti     0.0364   0.7648   0.0364
Ce115     Ce     0.0781   0.8491   0.0781
Ce116     Ce     0.9219   0.8491   0.9219
Ti117     Ti     0.9636   0.9636   0.7648
Ti118     Ti     0.0364   0.0364   0.7648
Ce119     Ce     0.0781   0.0781   0.8491
Ce120     Ce     0.9219   0.9219   0.8491
Ce121     Ce     0.1509   0.9219   0.0781
Ti122     Ti     0.2352   0.0364   0.9636
Ti123     Ti     0.2352   0.9636   0.0364
Ce124     Ce     0.1509   0.0781   0.9219
Ce125     Ce     0.9219   0.0781   0.1509
Ti126     Ti     0.0364   0.9636   0.2352
Ti127     Ti     0.9636   0.0364   0.2352
Ce128     Ce     0.0781   0.9219   0.1509
Ce129     Ce     0.9219   0.1509   0.0781
Ti130     Ti     0.0364   0.2352   0.9636
Ti131     Ti     0.9636   0.2352   0.0364
Ce132     Ce     0.0781   0.1509   0.9219
Er133     Er     0.0   0.0   0.6757
Er134     Er     0.1757   0.0   0.5
Er135     Er     0.0   0.1757   0.5
Er136     Er     0.0   0.0   0.3243
Er137     Er     0.8243   0.0   0.5
Er138     Er     0.0   0.8243   0.5
V139     V     0.0   0.0   0.5728
V140     V     0.0   0.0728   0.5
V141     V     0.0728   0.0   0.5
V142     V     0.0   0.0   0.4272
V143     V     0.0   0.9272   0.5
V144     V     0.9272   0.0   0.5
loop_
_geom_bond_atom_site_label_1
_geom_bond_atom_site_label_2
_geom_bond_distance
_geom_bond_site_symmetry_2
_ccdc_geom_bond_type
Er1     Ti13    10.0   .     S
Er1     Ti14    10.0   .     S
Er1     V12    10.0   .     S
Er2     Ti38    10.0   .     S
Er2     Ti37    10.0   .     S
Er2     V8    10.0   .     S
Er3     Ti61    10.0   .     S
Er3     Ti62    10.0   .     S
Er3     V7    10.0   .     S
Er4     Ti27    10.0   .     S
Er4     Ti26    10.0   .     S
Er4     V11    10.0   .     S
Er5     Ti51    10.0   .     S
Er5     Ti50    10.0   .     S
Er5     V10    10.0   .     S
Er6     Ti75    10.0   .     S
Er6     Ti74    10.0   .     S
Er6     V9    10.0   .     S
V7     V12    10.0   .     S
V7     V10    10.0   .     S
V7     V11    10.0   .     S
V7     V8    10.0   .     S
V8     V9    10.0   .     S
V8     V11    10.0   .     S
V8     V12    10.0   .     S
V9     V12    10.0   .     S
V9     V11    10.0   .     S
V9     V10    10.0   .     S
V10     V11    10.0   .     S
V10     V12    10.0   .     S
Ti13     Ti14    9.999   .     S
Ti13     Ce15    10.0   .     S
Ti14     Ce16    10.0   .     S
Ce15     Ce21    10.0   .     S
Ce15     Ce17    10.0   .     S
Ce16     Ce36    10.0   .     S
Ce16     Ce32    10.0   .     S
Ce17     Ti18    10.0   .     S
Ce17     Ce21    10.0   .     S
Ti18     Ti19    9.999   1_556     S
Ti18     Er89    10.0   1_556     S
Ti19     Ti18    9.999   1_554     S
Ti19     Ce20    10.0   .     S
Ti19     Er89    10.0   .     S
Ce20     Ce35    10.0   .     S
Ce20     Ce25    10.0   .     S
Ce21     Ti22    10.0   .     S
Ti22     Ti23    9.999   1_556     S
Ti22     Er101    10.0   1_556     S
Ti23     Ti22    9.999   1_554     S
Ti23     Ce24    10.0   .     S
Ti23     Er101    10.0   .     S
Ce24     Ce31    10.0   .     S
Ce24     Ce28    10.0   .     S
Ce25     Ti27    10.0   .     S
Ce25     Ce35    10.0   .     S
Ti26     Ti27    9.999   .     S
Ti26     Ce28    10.0   .     S
Ce28     Ce31    10.0   .     S
Ti29     Ti30    9.999   1_556     S
Ti29     Ce32    10.0   .     S
Ti29     Er86    10.0   1_556     S
Ti30     Ti29    9.999   1_554     S
Ti30     Ce31    10.0   .     S
Ti30     Er86    10.0   .     S
Ce32     Ce36    10.0   .     S
Ti33     Ti34    9.999   1_556     S
Ti33     Ce36    10.0   .     S
Ti33     Er98    10.0   1_556     S
Ti34     Ti33    9.999   1_554     S
Ti34     Ce35    10.0   .     S
Ti34     Er98    10.0   .     S
Ti37     Ti38    9.999   .     S
Ti37     Ce39    10.0   .     S
Ti38     Ce40    10.0   .     S
Ce39     Ce45    10.0   .     S
Ce39     Ce41    10.0   .     S
Ce40     Ce60    10.0   .     S
Ce40     Ce56    10.0   .     S
Ce41     Ti42    10.0   .     S
Ce41     Ce45    10.0   .     S
Ti42     Ti43    9.999   1_565     S
Ti42     Er90    10.0   1_565     S
Ti43     Ti42    9.999   1_545     S
Ti43     Ce44    10.0   .     S
Ti43     Er90    10.0   .     S
Ce44     Ce55    10.0   .     S
Ce44     Ce52    10.0   .     S
Ce45     Ti46    10.0   .     S
Ti46     Ti47    9.999   1_565     S
Ti46     Er137    10.0   1_565     S
Ti47     Ti46    9.999   1_545     S
Ti47     Ce48    10.0   .     S
Ti47     Er137    10.0   .     S
Ce48     Ce59    10.0   .     S
Ce48     Ce49    10.0   .     S
Ce49     Ti51    10.0   .     S
Ce49     Ce59    10.0   .     S
Ti50     Ti51    9.999   .     S
Ti50     Ce52    10.0   .     S
Ce52     Ce55    10.0   .     S
Ti53     Ti54    9.999   1_565     S
Ti53     Ce56    10.0   .     S
Ti53     Er134    10.0   1_565     S
Ti54     Ti53    9.999   1_545     S
Ti54     Ce55    10.0   .     S
Ti54     Er134    10.0   .     S
Ce56     Ce60    10.0   .     S
Ti57     Ti58    9.999   1_565     S
Ti57     Ce60    10.0   .     S
Ti57     Er87    10.0   1_565     S
Ti58     Ti57    9.999   1_545     S
Ti58     Ce59    10.0   .     S
Ti58     Er87    10.0   .     S
Ti61     Ti62    9.999   .     S
Ti61     Ce63    10.0   .     S
Ti62     Ce64    10.0   .     S
Ce63     Ce69    10.0   .     S
Ce63     Ce65    10.0   .     S
Ce64     Ce84    10.0   .     S
Ce64     Ce80    10.0   .     S
Ce65     Ti66    10.0   .     S
Ce65     Ce69    10.0   .     S
Ti66     Ti67    9.999   1_655     S
Ti66     Er102    10.0   1_655     S
Ti67     Ti66    9.999   1_455     S
Ti67     Ce68    10.0   .     S
Ti67     Er102    10.0   .     S
Ce68     Ce79    10.0   .     S
Ce68     Ce73    10.0   .     S
Ce69     Ti70    10.0   .     S
Ti70     Ti71    9.999   1_655     S
Ti70     Er138    10.0   1_655     S
Ti71     Ti70    9.999   1_455     S
Ti71     Ce72    10.0   .     S
Ti71     Er138    10.0   .     S
Ce72     Ce83    10.0   .     S
Ce72     Ce76    10.0   .     S
Ce73     Ti75    10.0   .     S
Ce73     Ce79    10.0   .     S
Ti74     Ti75    9.999   .     S
Ti74     Ce76    10.0   .     S
Ce76     Ce83    10.0   .     S
Ti77     Ti78    9.999   1_655     S
Ti77     Ce80    10.0   .     S
Ti77     Er135    10.0   1_655     S
Ti78     Ti77    9.999   1_455     S
Ti78     Ce79    10.0   .     S
Ti78     Er135    10.0   .     S
Ce80     Ce84    10.0   .     S
Ti81     Ti82    9.999   1_655     S
Ti81     Ce84    10.0   .     S
Ti81     Er99    10.0   1_655     S
Ti82     Ti81    9.999   1_455     S
Ti82     Ce83    10.0   .     S
Ti82     Er99    10.0   .     S
Er85     Ti110    10.0   .     S
Er85     Ti109    10.0   1_544     S
Er85     V91    10.0   .     S
Er86     Ti29    10.0   1_554     S
Er86     V93    10.0   .     S
Er87     Ti57    10.0   1_545     S
Er87     V92    10.0   .     S
Er88     Ti123    10.0   1_545     S
Er88     Ti122    10.0   1_554     S
Er88     V94    10.0   .     S
Er89     Ti18    10.0   1_554     S
Er89     V96    10.0   .     S
Er90     Ti42    10.0   1_545     S
Er90     V95    10.0   .     S
V91     V95    10.0   1_554     S
V91     V96    10.0   1_545     S
V91     V92    10.0   .     S
V91     V93    10.0   .     S
V92     V94    10.0   .     S
V92     V96    10.0   1_545     S
V92     V93    10.0   .     S
V93     V94    10.0   .     S
V93     V95    10.0   1_554     S
V94     V95    10.0   1_554     S
V94     V96    10.0   1_545     S
V95     V91    10.0   1_556     S
V95     V94    10.0   1_556     S
V95     V93    10.0   1_556     S
V95     V96    10.0   1_546     S
V96     V91    10.0   1_565     S
V96     V94    10.0   1_565     S
V96     V95    10.0   1_564     S
V96     V92    10.0   1_565     S
Er97     Ti113    10.0   1_454     S
Er97     Ti114    10.0   .     S
Er97     V103    10.0   .     S
Er98     Ti33    10.0   1_554     S
Er98     V105    10.0   .     S
Er99     Ti81    10.0   1_455     S
Er99     V104    10.0   .     S
Er100     Ti130    10.0   1_554     S
Er100     Ti131    10.0   1_455     S
Er100     V106    10.0   .     S
Er101     Ti22    10.0   1_554     S
Er101     V108    10.0   .     S
Er102     Ti66    10.0   1_455     S
Er102     V107    10.0   .     S
V103     V107    10.0   1_554     S
V103     V108    10.0   1_455     S
V103     V104    10.0   .     S
V103     V105    10.0   .     S
V104     V106    10.0   .     S
V104     V108    10.0   1_455     S
V104     V105    10.0   .     S
V105     V106    10.0   .     S
V105     V107    10.0   1_554     S
V106     V107    10.0   1_554     S
V106     V108    10.0   1_455     S
V107     V103    10.0   1_556     S
V107     V106    10.0   1_556     S
V107     V108    10.0   1_456     S
V107     V105    10.0   1_556     S
V108     V103    10.0   1_655     S
V108     V106    10.0   1_655     S
V108     V104    10.0   1_655     S
V108     V107    10.0   1_654     S
Ti109     Er85    10.0   1_566     S
Ti109     Ti110    9.999   1_566     S
Ti109     Ce112    10.0   .     S
Ti110     Ti109    9.999   1_544     S
Ti110     Ce111    10.0   .     S
Ce111     Ce129    10.0   .     S
Ce111     Ce125    10.0   .     S
Ce112     Ce116    10.0   .     S
Ce112     Ce120    10.0   .     S
Ti113     Er97    10.0   1_656     S
Ti113     Ti114    9.999   1_656     S
Ti113     Ce116    10.0   .     S
Ti114     Ti113    9.999   1_454     S
Ti114     Ce115    10.0   .     S
Ce115     Ce121    10.0   .     S
Ce115     Ce128    10.0   .     S
Ce116     Ce120    10.0   .     S
Ti117     Ti118    9.999   1_665     S
Ti117     Ce120    10.0   .     S
Ti117     Er133    10.0   1_665     S
Ti118     Ti117    9.999   1_445     S
Ti118     Ce119    10.0   .     S
Ti118     Er133    10.0   .     S
Ce119     Ce124    10.0   .     S
Ce119     Ce132    10.0   .     S
Ce121     Ce128    10.0   .     S
Ce121     Ti123    10.0   .     S
Ti122     Er88    10.0   1_556     S
Ti122     Ti123    9.999   1_546     S
Ti122     Ce124    10.0   .     S
Ti123     Er88    10.0   1_565     S
Ti123     Ti122    9.999   1_564     S
Ce124     Ce132    10.0   .     S
Ce125     Ti127    10.0   .     S
Ce125     Ce129    10.0   .     S
Ti126     Ti127    9.999   1_465     S
Ti126     Ce128    10.0   .     S
Ti126     Er136    10.0   1_565     S
Ti127     Ti126    9.999   1_645     S
Ti127     Er136    10.0   1_655     S
Ce129     Ti131    10.0   .     S
Ti130     Er100    10.0   1_556     S
Ti130     Ti131    9.999   1_456     S
Ti130     Ce132    10.0   .     S
Ti131     Er100    10.0   1_655     S
Ti131     Ti130    9.999   1_654     S
Er133     Ti117    10.0   1_445     S
Er133     V139    10.0   .     S
Er134     Ti53    10.0   1_545     S
Er134     V141    10.0   .     S
Er135     Ti77    10.0   1_455     S
Er135     V140    10.0   .     S
Er136     Ti127    10.0   1_455     S
Er136     Ti126    10.0   1_545     S
Er136     V142    10.0   .     S
Er137     Ti46    10.0   1_545     S
Er137     V144    10.0   .     S
Er138     Ti70    10.0   1_455     S
Er138     V143    10.0   .     S
V139     V144    10.0   1_455     S
V139     V143    10.0   1_545     S
V139     V141    10.0   .     S
V139     V140    10.0   .     S
V140     V142    10.0   .     S
V140     V144    10.0   1_455     S
V140     V141    10.0   .     S
V141     V142    10.0   .     S
V141     V143    10.0   1_545     S
V142     V143    10.0   1_545     S
V142     V144    10.0   1_455     S
V143     V142    10.0   1_565     S
V143     V141    10.0   1_565     S
V143     V144    10.0   1_465     S
V143     V139    10.0   1_565     S
V144     V142    10.0   1_655     S
V144     V143    10.0   1_645     S
V144     V140    10.0   1_655     S
V144     V139    10.0   1_655     S
