data_xbua
_audit_creation_date              2020-02-02
_audit_creation_method            'Pymatgen'
_symmetry_space_group_name_H-M    'P1'
_symmetry_Int_Tables_number       1
loop_
_symmetry_equiv_pos_as_xyz
  x,y,z
_cell_length_a                    96.5759
_cell_length_b                    96.5759
_cell_length_c                    96.5759
_cell_angle_alpha                 90.0
_cell_angle_beta                 90.0
_cell_angle_gamma                 90.0
loop_
_atom_site_label
_atom_site_type_symbol
_atom_site_fract_x
_atom_site_fract_y
_atom_site_fract_z
Ce1     Ce     0.6768   0.75   0.0
Ce2     Ce     0.75   0.6768   0.0
Ce3     Ce     0.75   0.8232   0.0
Ce4     Ce     0.8232   0.75   0.0
Ce5     Ce     0.5   0.75   0.6768
Ce6     Ce     0.5   0.6768   0.75
Ce7     Ce     0.5   0.8232   0.75
Ce8     Ce     0.5   0.75   0.8232
Ce9     Ce     0.6768   0.0   0.75
Ce10     Ce     0.75   0.0   0.6768
Ce11     Ce     0.8232   0.0   0.75
Ce12     Ce     0.75   0.0   0.8232
Ce13     Ce     0.75   0.6768   0.5
Ce14     Ce     0.6768   0.75   0.5
Ce15     Ce     0.8232   0.75   0.5
Ce16     Ce     0.75   0.8232   0.5
Ce17     Ce     0.75   0.5   0.6768
Ce18     Ce     0.6768   0.5   0.75
Ce19     Ce     0.8232   0.5   0.75
Ce20     Ce     0.75   0.5   0.8232
Ce21     Ce     0.0   0.6768   0.75
Ce22     Ce     0.0   0.75   0.6768
Ce23     Ce     0.0   0.8232   0.75
Ce24     Ce     0.0   0.75   0.8232
Ce25     Ce     0.25   0.6768   0.0
Ce26     Ce     0.25   0.8232   0.0
Ce27     Ce     0.1768   0.75   0.0
Ce28     Ce     0.3232   0.75   0.0
Ce29     Ce     0.25   0.0   0.6768
Ce30     Ce     0.25   0.0   0.8232
Ce31     Ce     0.1768   0.0   0.75
Ce32     Ce     0.3232   0.0   0.75
V33     V     0.5   0.8233   0.0
Ti34     Ti     0.5   0.7501   0.9268
Ti35     Ti     0.5732   0.7501   0.0
Ti36     Ti     0.5   0.7501   0.0732
Ti37     Ti     0.4268   0.7501   0.0
V38     V     0.5   0.0   0.8233
Ti39     Ti     0.5   0.9268   0.7501
Ti40     Ti     0.5732   0.0   0.7501
Ti41     Ti     0.5   0.0732   0.7501
Ti42     Ti     0.4268   0.0   0.7501
V43     V     0.6767   0.0   0.0
Ti44     Ti     0.7499   0.0   0.9268
Ti45     Ti     0.7499   0.0   0.0732
Ti46     Ti     0.7499   0.0732   0.0
Ti47     Ti     0.7499   0.9268   0.0
Ti48     Ti     0.2501   0.9268   0.0
V49     V     0.3233   0.0   0.0
Ti50     Ti     0.2501   0.0   0.0732
Ti51     Ti     0.2501   0.0732   0.0
Ti52     Ti     0.2501   0.0   0.9268
Ti53     Ti     0.5   0.2499   0.9268
Ti54     Ti     0.5732   0.2499   0.0
V55     V     0.5   0.1767   0.0
Ti56     Ti     0.5   0.2499   0.0732
Ti57     Ti     0.4268   0.2499   0.0
Er58     Er     0.4268   0.0   0.0
Er59     Er     0.5   0.0   0.0732
Er60     Er     0.5   0.0732   0.0
Er61     Er     0.5732   0.0   0.0
Er62     Er     0.5   0.0   0.9268
Er63     Er     0.5   0.9268   0.0
Ti64     Ti     0.5   0.9268   0.2499
Ti65     Ti     0.5732   0.0   0.2499
V66     V     0.5   0.0   0.1767
Ti67     Ti     0.5   0.0732   0.2499
Ti68     Ti     0.4268   0.0   0.2499
Ce69     Ce     0.6768   0.25   0.0
Ce70     Ce     0.8232   0.25   0.0
Ce71     Ce     0.75   0.1768   0.0
Ce72     Ce     0.75   0.3232   0.0
Ce73     Ce     0.25   0.3232   0.0
Ce74     Ce     0.3232   0.25   0.0
Ce75     Ce     0.25   0.1768   0.0
Ce76     Ce     0.1768   0.25   0.0
Ce77     Ce     0.0   0.25   0.6768
Ce78     Ce     0.0   0.25   0.8232
Ce79     Ce     0.0   0.1768   0.75
Ce80     Ce     0.0   0.3232   0.75
V81     V     0.8233   0.5   0.0
Ti82     Ti     0.7501   0.5   0.9268
Ti83     Ti     0.7501   0.5732   0.0
Ti84     Ti     0.7501   0.5   0.0732
Ti85     Ti     0.7501   0.4268   0.0
V86     V     0.0   0.5   0.8233
Ti87     Ti     0.0   0.5732   0.7501
Ti88     Ti     0.9268   0.5   0.7501
Ti89     Ti     0.0732   0.5   0.7501
Ti90     Ti     0.0   0.4268   0.7501
V91     V     0.0   0.6767   0.0
Ti92     Ti     0.9268   0.7499   0.0
Ti93     Ti     0.0   0.7499   0.0732
Ti94     Ti     0.0732   0.7499   0.0
Ti95     Ti     0.0   0.7499   0.9268
Ti96     Ti     0.9268   0.2501   0.0
V97     V     0.0   0.3233   0.0
Ti98     Ti     0.0   0.2501   0.0732
Ti99     Ti     0.0732   0.2501   0.0
Ti100     Ti     0.0   0.2501   0.9268
Ti101     Ti     0.2499   0.5732   0.0
Ti102     Ti     0.2499   0.5   0.9268
V103     V     0.1767   0.5   0.0
Ti104     Ti     0.2499   0.5   0.0732
Ti105     Ti     0.2499   0.4268   0.0
Er106     Er     0.0   0.4268   0.0
Er107     Er     0.0   0.5   0.0732
Er108     Er     0.0732   0.5   0.0
Er109     Er     0.0   0.5732   0.0
Er110     Er     0.0   0.5   0.9268
Er111     Er     0.9268   0.5   0.0
Ti112     Ti     0.9268   0.5   0.2499
Ti113     Ti     0.0   0.5732   0.2499
V114     V     0.0   0.5   0.1767
Ti115     Ti     0.0732   0.5   0.2499
Ti116     Ti     0.0   0.4268   0.2499
Ce117     Ce     0.25   0.0   0.3232
Ce118     Ce     0.3232   0.0   0.25
Ce119     Ce     0.25   0.0   0.1768
Ce120     Ce     0.1768   0.0   0.25
Ce121     Ce     0.6768   0.0   0.25
Ce122     Ce     0.8232   0.0   0.25
Ce123     Ce     0.75   0.0   0.1768
Ce124     Ce     0.75   0.0   0.3232
Ce125     Ce     0.0   0.25   0.3232
Ce126     Ce     0.0   0.3232   0.25
Ce127     Ce     0.0   0.25   0.1768
Ce128     Ce     0.0   0.1768   0.25
V129     V     0.8233   0.0   0.5
Ti130     Ti     0.7501   0.0   0.5732
Ti131     Ti     0.7501   0.9268   0.5
Ti132     Ti     0.7501   0.0732   0.5
Ti133     Ti     0.7501   0.0   0.4268
V134     V     0.0   0.8233   0.5
Ti135     Ti     0.0   0.7501   0.5732
Ti136     Ti     0.9268   0.7501   0.5
Ti137     Ti     0.0732   0.7501   0.5
Ti138     Ti     0.0   0.7501   0.4268
V139     V     0.0   0.0   0.6767
Ti140     Ti     0.9268   0.0   0.7499
Ti141     Ti     0.0732   0.0   0.7499
Ti142     Ti     0.0   0.0732   0.7499
Ti143     Ti     0.0   0.9268   0.7499
Ti144     Ti     0.0   0.9268   0.2501
V145     V     0.0   0.0   0.3233
Ti146     Ti     0.0   0.0732   0.2501
Ti147     Ti     0.0732   0.0   0.2501
Ti148     Ti     0.9268   0.0   0.2501
Ti149     Ti     0.2499   0.0   0.5732
Ti150     Ti     0.2499   0.9268   0.5
V151     V     0.1767   0.0   0.5
Ti152     Ti     0.2499   0.0732   0.5
Ti153     Ti     0.2499   0.0   0.4268
Er154     Er     0.0   0.0   0.4268
Er155     Er     0.0   0.0732   0.5
Er156     Er     0.0732   0.0   0.5
Er157     Er     0.0   0.0   0.5732
Er158     Er     0.0   0.9268   0.5
Er159     Er     0.9268   0.0   0.5
Ti160     Ti     0.9268   0.2499   0.5
Ti161     Ti     0.0   0.2499   0.5732
V162     V     0.0   0.1767   0.5
Ti163     Ti     0.0732   0.2499   0.5
Ti164     Ti     0.0   0.2499   0.4268
Ce165     Ce     0.0   0.6768   0.25
Ce166     Ce     0.0   0.8232   0.25
Ce167     Ce     0.0   0.75   0.1768
Ce168     Ce     0.0   0.75   0.3232
Ce169     Ce     0.5   0.25   0.8232
Ce170     Ce     0.5   0.25   0.6768
Ce171     Ce     0.5   0.1768   0.75
Ce172     Ce     0.5   0.3232   0.75
Ce173     Ce     0.25   0.8232   0.5
Ce174     Ce     0.25   0.6768   0.5
Ce175     Ce     0.1768   0.75   0.5
Ce176     Ce     0.3232   0.75   0.5
Ce177     Ce     0.5   0.8232   0.25
Ce178     Ce     0.5   0.6768   0.25
Ce179     Ce     0.5   0.75   0.1768
Ce180     Ce     0.5   0.75   0.3232
Ce181     Ce     0.5   0.25   0.3232
Ce182     Ce     0.5   0.3232   0.25
Ce183     Ce     0.5   0.25   0.1768
Ce184     Ce     0.5   0.1768   0.25
Ce185     Ce     0.25   0.3232   0.5
Ce186     Ce     0.3232   0.25   0.5
Ce187     Ce     0.25   0.1768   0.5
Ce188     Ce     0.1768   0.25   0.5
Ce189     Ce     0.8232   0.25   0.5
Ce190     Ce     0.6768   0.25   0.5
Ce191     Ce     0.75   0.1768   0.5
Ce192     Ce     0.75   0.3232   0.5
Ce193     Ce     0.8232   0.5   0.25
Ce194     Ce     0.6768   0.5   0.25
Ce195     Ce     0.75   0.5   0.1768
Ce196     Ce     0.75   0.5   0.3232
Ce197     Ce     0.25   0.5   0.3232
Ce198     Ce     0.3232   0.5   0.25
Ce199     Ce     0.25   0.5   0.1768
Ce200     Ce     0.1768   0.5   0.25
Ti201     Ti     0.5732   0.5   0.2501
V202     V     0.5   0.5   0.3233
Ti203     Ti     0.5   0.5732   0.2501
Ti204     Ti     0.4268   0.5   0.2501
Ti205     Ti     0.5   0.4268   0.2501
V206     V     0.5   0.6767   0.5
Ti207     Ti     0.5   0.7499   0.5732
Ti208     Ti     0.5732   0.7499   0.5
Ti209     Ti     0.5   0.7499   0.4268
Ti210     Ti     0.4268   0.7499   0.5
Ti211     Ti     0.5732   0.2501   0.5
V212     V     0.5   0.3233   0.5
Ti213     Ti     0.5   0.2501   0.5732
Ti214     Ti     0.5   0.2501   0.4268
Ti215     Ti     0.4268   0.2501   0.5
V216     V     0.6767   0.5   0.5
Ti217     Ti     0.7499   0.5732   0.5
Ti218     Ti     0.7499   0.5   0.5732
Ti219     Ti     0.7499   0.5   0.4268
Ti220     Ti     0.7499   0.4268   0.5
Ti221     Ti     0.2501   0.5732   0.5
V222     V     0.3233   0.5   0.5
Ti223     Ti     0.2501   0.5   0.5732
Ti224     Ti     0.2501   0.5   0.4268
Ti225     Ti     0.2501   0.4268   0.5
Er226     Er     0.4268   0.5   0.5
Er227     Er     0.5   0.4268   0.5
Er228     Er     0.5   0.5   0.4268
Er229     Er     0.5   0.5   0.5732
Er230     Er     0.5732   0.5   0.5
Er231     Er     0.5   0.5732   0.5
V232     V     0.5   0.5   0.6767
Ti233     Ti     0.5   0.5732   0.7499
Ti234     Ti     0.5732   0.5   0.7499
Ti235     Ti     0.4268   0.5   0.7499
Ti236     Ti     0.5   0.4268   0.7499
Ce237     Ce     0.25   0.5   0.6768
Ce238     Ce     0.25   0.5   0.8232
Ce239     Ce     0.1768   0.5   0.75
Ce240     Ce     0.3232   0.5   0.75
loop_
_geom_bond_atom_site_label_1
_geom_bond_atom_site_label_2
_geom_bond_distance
_geom_bond_site_symmetry_2
_ccdc_geom_bond_type
Ce1     Ce3    10.0   .     S
Ce1     Ce2    10.0   .     S
Ce1     Ti35    10.001   .     S
Ce2     Ce4    10.0   .     S
Ce2     Ti83    10.001   .     S
Ce3     Ce4    10.0   .     S
Ce3     Ti47    10.001   .     S
Ce4     Ti92    10.001   .     S
Ce5     Ce6    10.0   .     S
Ce5     Ce7    10.0   .     S
Ce5     Ti207    10.001   .     S
Ce6     Ce8    10.0   .     S
Ce6     Ti233    10.001   .     S
Ce7     Ce8    10.0   .     S
Ce7     Ti39    10.001   .     S
Ce8     Ti34    10.001   .     S
Ce9     Ce12    10.0   .     S
Ce9     Ce10    10.0   .     S
Ce9     Ti40    10.001   .     S
Ce10     Ce11    10.0   .     S
Ce10     Ti130    10.001   .     S
Ce11     Ce12    10.0   .     S
Ce11     Ti140    10.001   .     S
Ce12     Ti44    10.001   .     S
Ce13     Ce14    10.0   .     S
Ce13     Ce15    10.0   .     S
Ce13     Ti217    10.001   .     S
Ce14     Ce16    10.0   .     S
Ce14     Ti208    10.001   .     S
Ce15     Ce16    10.0   .     S
Ce15     Ti136    10.001   .     S
Ce16     Ti131    10.001   .     S
Ce17     Ce18    10.0   .     S
Ce17     Ce19    10.0   .     S
Ce17     Ti218    10.001   .     S
Ce18     Ce20    10.0   .     S
Ce18     Ti234    10.001   .     S
Ce19     Ce20    10.0   .     S
Ce19     Ti88    10.001   .     S
Ce20     Ti82    10.001   .     S
Ce21     Ce24    10.0   .     S
Ce21     Ce22    10.0   .     S
Ce21     Ti87    10.001   .     S
Ce22     Ce23    10.0   .     S
Ce22     Ti135    10.001   .     S
Ce23     Ce24    10.0   .     S
Ce23     Ti143    10.001   .     S
Ce24     Ti95    10.001   .     S
Ce25     Ce28    10.0   .     S
Ce25     Ce27    10.0   .     S
Ce25     Ti101    10.001   .     S
Ce26     Ce28    10.0   .     S
Ce26     Ce27    10.0   .     S
Ce26     Ti48    10.001   .     S
Ce27     Ti94    10.001   .     S
Ce28     Ti37    10.001   .     S
Ce29     Ce32    10.0   .     S
Ce29     Ce31    10.0   .     S
Ce29     Ti149    10.001   .     S
Ce30     Ce32    10.0   .     S
Ce30     Ce31    10.0   .     S
Ce30     Ti52    10.001   .     S
Ce31     Ti141    10.001   .     S
Ce32     Ti42    10.001   .     S
V33     Er63    9.999   .     S
V33     Ti37    9.999   .     S
V33     Ti36    9.999   .     S
V33     Ti34    9.999   1_554     S
V33     Ti35    9.999   .     S
Ti34     V33    9.999   1_556     S
Ti34     Ti37    10.0   1_556     S
Ti34     Ti35    10.0   1_556     S
Ti35     Ti36    10.0   .     S
Ti35     Ti34    10.0   1_554     S
Ti36     Ti37    10.0   .     S
Ti36     Ce179    10.001   .     S
Ti37     Ti34    10.0   1_554     S
V38     Er62    9.999   .     S
V38     Ti42    9.999   .     S
V38     Ti41    9.999   .     S
V38     Ti39    9.999   1_545     S
V38     Ti40    9.999   .     S
Ti39     V38    9.999   1_565     S
Ti39     Ti42    10.0   1_565     S
Ti39     Ti40    10.0   1_565     S
Ti40     Ti41    10.0   .     S
Ti40     Ti39    10.0   1_545     S
Ti41     Ti42    10.0   .     S
Ti41     Ce171    10.001   .     S
Ti42     Ti39    10.0   1_545     S
V43     Er61    9.999   .     S
V43     Ti44    9.999   1_554     S
V43     Ti45    9.999   .     S
V43     Ti46    9.999   .     S
V43     Ti47    9.999   1_545     S
Ti44     V43    9.999   1_556     S
Ti44     Ti46    10.0   1_556     S
Ti44     Ti47    10.0   1_546     S
Ti45     Ti46    10.0   .     S
Ti45     Ti47    10.0   1_545     S
Ti45     Ce123    10.001   .     S
Ti46     Ti44    10.0   1_554     S
Ti46     Ce71    10.001   .     S
Ti47     V43    9.999   1_565     S
Ti47     Ti45    10.0   1_565     S
Ti47     Ti44    10.0   1_564     S
Ti48     V49    9.999   1_565     S
Ti48     Ti50    10.0   1_565     S
Ti48     Ti52    10.0   1_564     S
V49     Ti48    9.999   1_545     S
V49     Er58    9.999   .     S
V49     Ti50    9.999   .     S
V49     Ti51    9.999   .     S
V49     Ti52    9.999   1_554     S
Ti50     Ti48    10.0   1_545     S
Ti50     Ti51    10.0   .     S
Ti50     Ce119    10.001   .     S
Ti51     Ti52    10.0   1_554     S
Ti51     Ce75    10.001   .     S
Ti52     V49    9.999   1_556     S
Ti52     Ti51    10.0   1_556     S
Ti52     Ti48    10.0   1_546     S
Ti53     V55    9.999   1_556     S
Ti53     Ti57    10.0   1_556     S
Ti53     Ti54    10.0   1_556     S
Ti53     Ce169    10.001   .     S
Ti54     V55    9.999   .     S
Ti54     Ti56    10.0   .     S
Ti54     Ti53    10.0   1_554     S
Ti54     Ce69    10.001   .     S
V55     Ti53    9.999   1_554     S
V55     Er60    9.999   .     S
V55     Ti56    9.999   .     S
V55     Ti57    9.999   .     S
Ti56     Ti57    10.0   .     S
Ti56     Ce183    10.001   .     S
Ti57     Ti53    10.0   1_554     S
Ti57     Ce74    10.001   .     S
Er58     Er62    9.999   1_554     S
Er58     Er63    9.999   1_545     S
Er58     Er59    9.999   .     S
Er58     Er60    9.999   .     S
Er59     Er61    9.999   .     S
Er59     Er63    9.999   1_545     S
Er59     Er60    9.999   .     S
Er59     V66    9.999   .     S
Er60     Er61    9.999   .     S
Er60     Er62    9.999   1_554     S
Er61     Er62    9.999   1_554     S
Er61     Er63    9.999   1_545     S
Er62     Er60    9.999   1_556     S
Er62     Er61    9.999   1_556     S
Er62     Er63    9.999   1_546     S
Er62     Er58    9.999   1_556     S
Er63     Er59    9.999   1_565     S
Er63     Er61    9.999   1_565     S
Er63     Er62    9.999   1_564     S
Er63     Er58    9.999   1_565     S
Ti64     V66    9.999   1_565     S
Ti64     Ti68    10.0   1_565     S
Ti64     Ti65    10.0   1_565     S
Ti64     Ce177    10.001   .     S
Ti65     V66    9.999   .     S
Ti65     Ti67    10.0   .     S
Ti65     Ti64    10.0   1_545     S
Ti65     Ce121    10.001   .     S
V66     Ti64    9.999   1_545     S
V66     Ti67    9.999   .     S
V66     Ti68    9.999   .     S
Ti67     Ti68    10.0   .     S
Ti67     Ce184    10.001   .     S
Ti68     Ti64    10.0   1_545     S
Ti68     Ce118    10.001   .     S
Ce69     Ce72    10.0   .     S
Ce69     Ce71    10.0   .     S
Ce70     Ce72    10.0   .     S
Ce70     Ce71    10.0   .     S
Ce70     Ti96    10.001   .     S
Ce72     Ti85    10.001   .     S
Ce73     Ce74    10.0   .     S
Ce73     Ce76    10.0   .     S
Ce73     Ti105    10.001   .     S
Ce74     Ce75    10.0   .     S
Ce75     Ce76    10.0   .     S
Ce76     Ti99    10.001   .     S
Ce77     Ce80    10.0   .     S
Ce77     Ce79    10.0   .     S
Ce77     Ti161    10.001   .     S
Ce78     Ce80    10.0   .     S
Ce78     Ce79    10.0   .     S
Ce78     Ti100    10.001   .     S
Ce79     Ti142    10.001   .     S
Ce80     Ti90    10.001   .     S
V81     Er111    9.999   .     S
V81     Ti85    9.999   .     S
V81     Ti84    9.999   .     S
V81     Ti82    9.999   1_554     S
V81     Ti83    9.999   .     S
Ti82     V81    9.999   1_556     S
Ti82     Ti85    10.0   1_556     S
Ti82     Ti83    10.0   1_556     S
Ti83     Ti84    10.0   .     S
Ti83     Ti82    10.0   1_554     S
Ti84     Ti85    10.0   .     S
Ti84     Ce195    10.001   .     S
Ti85     Ti82    10.0   1_554     S
V86     Er110    9.999   .     S
V86     Ti90    9.999   .     S
V86     Ti89    9.999   .     S
V86     Ti87    9.999   .     S
V86     Ti88    9.999   1_455     S
Ti87     Ti89    10.0   .     S
Ti87     Ti88    10.0   1_455     S
Ti88     V86    9.999   1_655     S
Ti88     Ti90    10.0   1_655     S
Ti88     Ti87    10.0   1_655     S
Ti89     Ti90    10.0   .     S
Ti89     Ce239    10.001   .     S
Ti90     Ti88    10.0   1_455     S
V91     Er109    9.999   .     S
V91     Ti92    9.999   1_455     S
V91     Ti93    9.999   .     S
V91     Ti94    9.999   .     S
V91     Ti95    9.999   1_554     S
Ti92     V91    9.999   1_655     S
Ti92     Ti93    10.0   1_655     S
Ti92     Ti95    10.0   1_654     S
Ti93     Ti92    10.0   1_455     S
Ti93     Ti94    10.0   .     S
Ti93     Ce167    10.001   .     S
Ti94     Ti95    10.0   1_554     S
Ti95     V91    9.999   1_556     S
Ti95     Ti94    10.0   1_556     S
Ti95     Ti92    10.0   1_456     S
Ti96     V97    9.999   1_655     S
Ti96     Ti98    10.0   1_655     S
Ti96     Ti100    10.0   1_654     S
V97     Ti96    9.999   1_455     S
V97     Er106    9.999   .     S
V97     Ti98    9.999   .     S
V97     Ti99    9.999   .     S
V97     Ti100    9.999   1_554     S
Ti98     Ti96    10.0   1_455     S
Ti98     Ti99    10.0   .     S
Ti98     Ce127    10.001   .     S
Ti99     Ti100    10.0   1_554     S
Ti100     V97    9.999   1_556     S
Ti100     Ti99    10.0   1_556     S
Ti100     Ti96    10.0   1_456     S
Ti101     V103    9.999   .     S
Ti101     Ti104    10.0   .     S
Ti101     Ti102    10.0   1_554     S
Ti102     V103    9.999   1_556     S
Ti102     Ti105    10.0   1_556     S
Ti102     Ti101    10.0   1_556     S
Ti102     Ce238    10.001   .     S
V103     Ti102    9.999   1_554     S
V103     Er108    9.999   .     S
V103     Ti104    9.999   .     S
V103     Ti105    9.999   .     S
Ti104     Ti105    10.0   .     S
Ti104     Ce199    10.001   .     S
Ti105     Ti102    10.0   1_554     S
Er106     Er110    9.999   1_554     S
Er106     Er111    9.999   1_455     S
Er106     Er107    9.999   .     S
Er106     Er108    9.999   .     S
Er107     Er109    9.999   .     S
Er107     Er111    9.999   1_455     S
Er107     Er108    9.999   .     S
Er107     V114    9.999   .     S
Er108     Er109    9.999   .     S
Er108     Er110    9.999   1_554     S
Er109     Er110    9.999   1_554     S
Er109     Er111    9.999   1_455     S
Er110     Er108    9.999   1_556     S
Er110     Er109    9.999   1_556     S
Er110     Er111    9.999   1_456     S
Er110     Er106    9.999   1_556     S
Er111     Er107    9.999   1_655     S
Er111     Er109    9.999   1_655     S
Er111     Er110    9.999   1_654     S
Er111     Er106    9.999   1_655     S
Ti112     V114    9.999   1_655     S
Ti112     Ti116    10.0   1_655     S
Ti112     Ti113    10.0   1_655     S
Ti112     Ce193    10.001   .     S
Ti113     V114    9.999   .     S
Ti113     Ti115    10.0   .     S
Ti113     Ti112    10.0   1_455     S
Ti113     Ce165    10.001   .     S
V114     Ti112    9.999   1_455     S
V114     Ti115    9.999   .     S
V114     Ti116    9.999   .     S
Ti115     Ti116    10.0   .     S
Ti115     Ce200    10.001   .     S
Ti116     Ti112    10.0   1_455     S
Ti116     Ce126    10.001   .     S
Ce117     Ce118    10.0   .     S
Ce117     Ce120    10.0   .     S
Ce117     Ti153    10.001   .     S
Ce118     Ce119    10.0   .     S
Ce119     Ce120    10.0   .     S
Ce120     Ti147    10.001   .     S
Ce121     Ce124    10.0   .     S
Ce121     Ce123    10.0   .     S
Ce122     Ce124    10.0   .     S
Ce122     Ce123    10.0   .     S
Ce122     Ti148    10.001   .     S
Ce124     Ti133    10.001   .     S
Ce125     Ce126    10.0   .     S
Ce125     Ce128    10.0   .     S
Ce125     Ti164    10.001   .     S
Ce126     Ce127    10.0   .     S
Ce127     Ce128    10.0   .     S
Ce128     Ti146    10.001   .     S
V129     Er159    9.999   .     S
V129     Ti133    9.999   .     S
V129     Ti132    9.999   .     S
V129     Ti130    9.999   .     S
V129     Ti131    9.999   1_545     S
Ti130     Ti132    10.0   .     S
Ti130     Ti131    10.0   1_545     S
Ti131     V129    9.999   1_565     S
Ti131     Ti133    10.0   1_565     S
Ti131     Ti130    10.0   1_565     S
Ti132     Ti133    10.0   .     S
Ti132     Ce191    10.001   .     S
Ti133     Ti131    10.0   1_545     S
V134     Er158    9.999   .     S
V134     Ti138    9.999   .     S
V134     Ti137    9.999   .     S
V134     Ti135    9.999   .     S
V134     Ti136    9.999   1_455     S
Ti135     Ti137    10.0   .     S
Ti135     Ti136    10.0   1_455     S
Ti136     V134    9.999   1_655     S
Ti136     Ti138    10.0   1_655     S
Ti136     Ti135    10.0   1_655     S
Ti137     Ti138    10.0   .     S
Ti137     Ce175    10.001   .     S
Ti138     Ti136    10.0   1_455     S
Ti138     Ce168    10.001   .     S
V139     Er157    9.999   .     S
V139     Ti140    9.999   1_455     S
V139     Ti141    9.999   .     S
V139     Ti142    9.999   .     S
V139     Ti143    9.999   1_545     S
Ti140     V139    9.999   1_655     S
Ti140     Ti142    10.0   1_655     S
Ti140     Ti143    10.0   1_645     S
Ti141     Ti142    10.0   .     S
Ti141     Ti143    10.0   1_545     S
Ti142     Ti140    10.0   1_455     S
Ti143     V139    9.999   1_565     S
Ti143     Ti141    10.0   1_565     S
Ti143     Ti140    10.0   1_465     S
Ti144     V145    9.999   1_565     S
Ti144     Ti147    10.0   1_565     S
Ti144     Ti148    10.0   1_465     S
Ti144     Ce166    10.001   .     S
V145     Ti144    9.999   1_545     S
V145     Er154    9.999   .     S
V145     Ti146    9.999   .     S
V145     Ti147    9.999   .     S
V145     Ti148    9.999   1_455     S
Ti146     Ti147    10.0   .     S
Ti146     Ti148    10.0   1_455     S
Ti147     Ti144    10.0   1_545     S
Ti148     V145    9.999   1_655     S
Ti148     Ti146    10.0   1_655     S
Ti148     Ti144    10.0   1_645     S
Ti149     V151    9.999   .     S
Ti149     Ti152    10.0   .     S
Ti149     Ti150    10.0   1_545     S
Ti150     V151    9.999   1_565     S
Ti150     Ti153    10.0   1_565     S
Ti150     Ti149    10.0   1_565     S
Ti150     Ce173    10.001   .     S
V151     Ti150    9.999   1_545     S
V151     Er156    9.999   .     S
V151     Ti152    9.999   .     S
V151     Ti153    9.999   .     S
Ti152     Ti153    10.0   .     S
Ti152     Ce187    10.001   .     S
Ti153     Ti150    10.0   1_545     S
Er154     Er159    9.999   1_455     S
Er154     Er158    9.999   1_545     S
Er154     Er155    9.999   .     S
Er154     Er156    9.999   .     S
Er155     Er157    9.999   .     S
Er155     Er159    9.999   1_455     S
Er155     Er156    9.999   .     S
Er155     V162    9.999   .     S
Er156     Er157    9.999   .     S
Er156     Er158    9.999   1_545     S
Er157     Er158    9.999   1_545     S
Er157     Er159    9.999   1_455     S
Er158     Er154    9.999   1_565     S
Er158     Er156    9.999   1_565     S
Er158     Er157    9.999   1_565     S
Er158     Er159    9.999   1_465     S
Er159     Er154    9.999   1_655     S
Er159     Er155    9.999   1_655     S
Er159     Er157    9.999   1_655     S
Er159     Er158    9.999   1_645     S
Ti160     V162    9.999   1_655     S
Ti160     Ti164    10.0   1_655     S
Ti160     Ti161    10.0   1_655     S
Ti160     Ce189    10.001   .     S
Ti161     V162    9.999   .     S
Ti161     Ti163    10.0   .     S
Ti161     Ti160    10.0   1_455     S
V162     Ti160    9.999   1_455     S
V162     Ti163    9.999   .     S
V162     Ti164    9.999   .     S
Ti163     Ti164    10.0   .     S
Ti163     Ce188    10.001   .     S
Ti164     Ti160    10.0   1_455     S
Ce165     Ce168    10.0   .     S
Ce165     Ce167    10.0   .     S
Ce166     Ce168    10.0   .     S
Ce166     Ce167    10.0   .     S
Ce169     Ce172    10.0   .     S
Ce169     Ce171    10.0   .     S
Ce170     Ce172    10.0   .     S
Ce170     Ce171    10.0   .     S
Ce170     Ti213    10.001   .     S
Ce172     Ti236    10.001   .     S
Ce173     Ce176    10.0   .     S
Ce173     Ce175    10.0   .     S
Ce174     Ce176    10.0   .     S
Ce174     Ce175    10.0   .     S
Ce174     Ti221    10.001   .     S
Ce176     Ti210    10.001   .     S
Ce177     Ce180    10.0   .     S
Ce177     Ce179    10.0   .     S
Ce178     Ce180    10.0   .     S
Ce178     Ce179    10.0   .     S
Ce178     Ti203    10.001   .     S
Ce180     Ti209    10.001   .     S
Ce181     Ce182    10.0   .     S
Ce181     Ce184    10.0   .     S
Ce181     Ti214    10.001   .     S
Ce182     Ce183    10.0   .     S
Ce182     Ti205    10.001   .     S
Ce183     Ce184    10.0   .     S
Ce185     Ce186    10.0   .     S
Ce185     Ce188    10.0   .     S
Ce185     Ti225    10.001   .     S
Ce186     Ce187    10.0   .     S
Ce186     Ti215    10.001   .     S
Ce187     Ce188    10.0   .     S
Ce189     Ce192    10.0   .     S
Ce189     Ce191    10.0   .     S
Ce190     Ce192    10.0   .     S
Ce190     Ce191    10.0   .     S
Ce190     Ti211    10.001   .     S
Ce192     Ti220    10.001   .     S
Ce193     Ce196    10.0   .     S
Ce193     Ce195    10.0   .     S
Ce194     Ce196    10.0   .     S
Ce194     Ce195    10.0   .     S
Ce194     Ti201    10.001   .     S
Ce196     Ti219    10.001   .     S
Ce197     Ce198    10.0   .     S
Ce197     Ce200    10.0   .     S
Ce197     Ti224    10.001   .     S
Ce198     Ce199    10.0   .     S
Ce198     Ti204    10.001   .     S
Ce199     Ce200    10.0   .     S
Ti201     V202    9.999   .     S
Ti201     Ti205    10.0   .     S
Ti201     Ti203    10.0   .     S
V202     Er228    9.999   .     S
V202     Ti204    9.999   .     S
V202     Ti205    9.999   .     S
V202     Ti203    9.999   .     S
Ti203     Ti204    10.0   .     S
Ti204     Ti205    10.0   .     S
V206     Er231    9.999   .     S
V206     Ti207    9.999   .     S
V206     Ti208    9.999   .     S
V206     Ti209    9.999   .     S
V206     Ti210    9.999   .     S
Ti207     Ti210    10.0   .     S
Ti207     Ti208    10.0   .     S
Ti208     Ti209    10.0   .     S
Ti209     Ti210    10.0   .     S
Ti211     V212    9.999   .     S
Ti211     Ti214    10.0   .     S
Ti211     Ti213    10.0   .     S
V212     Er227    9.999   .     S
V212     Ti214    9.999   .     S
V212     Ti215    9.999   .     S
V212     Ti213    9.999   .     S
Ti213     Ti215    10.0   .     S
Ti214     Ti215    10.0   .     S
V216     Er230    9.999   .     S
V216     Ti217    9.999   .     S
V216     Ti218    9.999   .     S
V216     Ti219    9.999   .     S
V216     Ti220    9.999   .     S
Ti217     Ti219    10.0   .     S
Ti217     Ti218    10.0   .     S
Ti218     Ti220    10.0   .     S
Ti219     Ti220    10.0   .     S
Ti221     V222    9.999   .     S
Ti221     Ti224    10.0   .     S
Ti221     Ti223    10.0   .     S
V222     Er226    9.999   .     S
V222     Ti224    9.999   .     S
V222     Ti225    9.999   .     S
V222     Ti223    9.999   .     S
Ti223     Ti225    10.0   .     S
Ti223     Ce237    10.001   .     S
Ti224     Ti225    10.0   .     S
Er226     Er229    9.999   .     S
Er226     Er231    9.999   .     S
Er226     Er228    9.999   .     S
Er226     Er227    9.999   .     S
Er227     Er230    9.999   .     S
Er227     Er229    9.999   .     S
Er227     Er228    9.999   .     S
Er228     Er230    9.999   .     S
Er228     Er231    9.999   .     S
Er229     Er230    9.999   .     S
Er229     Er231    9.999   .     S
Er229     V232    9.999   .     S
Er230     Er231    9.999   .     S
V232     Ti233    9.999   .     S
V232     Ti234    9.999   .     S
V232     Ti235    9.999   .     S
V232     Ti236    9.999   .     S
Ti233     Ti235    10.0   .     S
Ti233     Ti234    10.0   .     S
Ti234     Ti236    10.0   .     S
Ti235     Ti236    10.0   .     S
Ti235     Ce240    10.001   .     S
Ce237     Ce240    10.0   .     S
Ce237     Ce239    10.0   .     S
Ce238     Ce240    10.0   .     S
Ce238     Ce239    10.0   .     S
