data_xfa
_audit_creation_date              2020-02-02
_audit_creation_method            'Pymatgen'
_symmetry_space_group_name_H-M    'P1'
_symmetry_Int_Tables_number       1
loop_
_symmetry_equiv_pos_as_xyz
  x,y,z
_cell_length_a                    26.855
_cell_length_b                    26.855
_cell_length_c                    20.0
_cell_angle_alpha                 90.0
_cell_angle_beta                 90.0
_cell_angle_gamma                 90.0
loop_
_atom_site_label
_atom_site_type_symbol
_atom_site_fract_x
_atom_site_fract_y
_atom_site_fract_z
V1     V     0.2457   0.0176   0.375
V2     V     0.2457   0.0176   0.875
V3     V     0.5176   0.2543   0.25
V4     V     0.5176   0.2543   0.75
V5     V     0.4824   0.7457   0.0
V6     V     0.4824   0.7457   0.5
V7     V     0.7543   0.9824   0.125
V8     V     0.7543   0.9824   0.625
V9     V     0.0176   0.2457   0.125
V10     V     0.0176   0.2457   0.625
V11     V     0.2543   0.5176   0.25
V12     V     0.2543   0.5176   0.75
V13     V     0.7457   0.4824   0.5
V14     V     0.7457   0.4824   1.0
V15     V     0.9824   0.7543   0.375
V16     V     0.9824   0.7543   0.875
loop_
_geom_bond_atom_site_label_1
_geom_bond_atom_site_label_2
_geom_bond_distance
_geom_bond_site_symmetry_2
_ccdc_geom_bond_type
V1     V9    10.0   .     S
V1     V2    10.0   1_554     S
V1     V2    10.0   .     S
V1     V3    10.0   .     S
V1     V6    10.0   1_545     S
V1     V10    10.0   .     S
V1     V15    10.0   1_445     S
V2     V10    10.0   .     S
V2     V1    10.0   1_556     S
V2     V4    10.0   .     S
V2     V5    10.0   1_546     S
V2     V9    10.0   1_556     S
V2     V16    10.0   1_445     S
V3     V7    10.0   1_545     S
V3     V13    10.0   .     S
V3     V14    10.0   1_554     S
V3     V4    10.0   1_554     S
V3     V4    10.0   .     S
V3     V11    10.0   .     S
V4     V8    10.0   1_545     S
V4     V14    10.0   .     S
V4     V13    10.0   .     S
V4     V3    10.0   1_556     S
V4     V12    10.0   .     S
V5     V6    10.0   .     S
V5     V6    10.0   1_554     S
V5     V12    10.0   1_554     S
V5     V2    10.0   1_564     S
V5     V7    10.0   .     S
V5     V11    10.0   .     S
V5     V14    10.0   1_554     S
V6     V5    10.0   1_556     S
V6     V11    10.0   .     S
V6     V1    10.0   1_565     S
V6     V8    10.0   .     S
V6     V12    10.0   .     S
V6     V13    10.0   .     S
V7     V16    10.0   1_554     S
V7     V8    10.0   .     S
V7     V8    10.0   1_554     S
V7     V3    10.0   1_565     S
V7     V15    10.0   .     S
V7     V9    10.0   1_665     S
V8     V15    10.0   .     S
V8     V7    10.0   1_556     S
V8     V4    10.0   1_565     S
V8     V16    10.0   .     S
V8     V10    10.0   1_665     S
V9     V10    10.0   .     S
V9     V10    10.0   1_554     S
V9     V11    10.0   .     S
V9     V14    10.0   1_454     S
V9     V2    10.0   1_554     S
V9     V7    10.0   1_445     S
V10     V9    10.0   1_556     S
V10     V12    10.0   .     S
V10     V13    10.0   1_455     S
V10     V8    10.0   1_445     S
V11     V12    10.0   .     S
V11     V12    10.0   1_554     S
V11     V15    10.0   1_455     S
V12     V5    10.0   1_556     S
V12     V11    10.0   1_556     S
V12     V16    10.0   1_455     S
V13     V10    10.0   1_655     S
V13     V15    10.0   .     S
V13     V14    10.0   1_554     S
V13     V14    10.0   .     S
V14     V9    10.0   1_656     S
V14     V16    10.0   .     S
V14     V13    10.0   1_556     S
V14     V3    10.0   1_556     S
V14     V5    10.0   1_556     S
V15     V16    10.0   1_554     S
V15     V16    10.0   .     S
V15     V11    10.0   1_655     S
V15     V1    10.0   1_665     S
V16     V15    10.0   1_556     S
V16     V7    10.0   1_556     S
V16     V12    10.0   1_655     S
V16     V2    10.0   1_665     S
