data_xfb
_audit_creation_date              2020-02-02
_audit_creation_method            'Pymatgen'
_symmetry_space_group_name_H-M    'P1'
_symmetry_Int_Tables_number       1
loop_
_symmetry_equiv_pos_as_xyz
  x,y,z
_cell_length_a                    37.9793
_cell_length_b                    37.9793
_cell_length_c                    19.9998
_cell_angle_alpha                 90.0
_cell_angle_beta                 90.0
_cell_angle_gamma                 90.0
loop_
_atom_site_label
_atom_site_type_symbol
_atom_site_fract_x
_atom_site_fract_y
_atom_site_fract_z
V1     V     0.9065   0.5895   0.4547
V2     V     0.9065   0.5895   0.9547
V3     V     0.5935   0.9105   0.2953
V4     V     0.5935   0.9105   0.7953
V5     V     0.8395   0.3435   0.0797
V6     V     0.8395   0.3435   0.5797
V7     V     0.1605   0.6565   0.4203
V8     V     0.1605   0.6565   0.9203
V9     V     0.5935   0.4105   0.2047
V10     V     0.5935   0.4105   0.7047
V11     V     0.9065   0.0895   0.0453
V12     V     0.9065   0.0895   0.5453
V13     V     0.3395   0.3435   0.1703
V14     V     0.3395   0.3435   0.6703
V15     V     0.6605   0.6565   0.3297
V16     V     0.6605   0.6565   0.8297
V17     V     0.4065   0.5895   0.2953
V18     V     0.4065   0.5895   0.7953
V19     V     0.0935   0.9105   0.4547
V20     V     0.0935   0.9105   0.9547
V21     V     0.8395   0.8435   0.4203
V22     V     0.8395   0.8435   0.9203
V23     V     0.1605   0.1565   0.0797
V24     V     0.1605   0.1565   0.5797
V25     V     0.0935   0.4105   0.0453
V26     V     0.0935   0.4105   0.5453
V27     V     0.4065   0.0895   0.2047
V28     V     0.4065   0.0895   0.7047
V29     V     0.6605   0.1565   0.1703
V30     V     0.6605   0.1565   0.6703
V31     V     0.3395   0.8435   0.3297
V32     V     0.3395   0.8435   0.8297
loop_
_geom_bond_atom_site_label_1
_geom_bond_atom_site_label_2
_geom_bond_distance
_geom_bond_site_symmetry_2
_ccdc_geom_bond_type
V1     V15    10.0   .     S
V1     V21    10.0   .     S
V1     V2    10.0   1_554     S
V1     V2    10.0   .     S
V1     V6    10.0   .     S
V1     V7    10.0   1_655     S
V1     V26    10.0   1_655     S
V2     V16    10.0   .     S
V2     V22    10.0   .     S
V2     V1    10.0   1_556     S
V2     V5    10.0   1_556     S
V2     V8    10.0   1_655     S
V2     V25    10.0   1_656     S
V3     V21    10.0   .     S
V3     V15    10.0   .     S
V3     V4    10.0   1_554     S
V3     V4    10.0   .     S
V3     V29    10.0   1_565     S
V3     V31    10.0   .     S
V3     V27    10.0   1_565     S
V4     V22    10.0   .     S
V4     V16    10.0   .     S
V4     V3    10.0   1_556     S
V4     V30    10.0   1_565     S
V4     V32    10.0   .     S
V4     V28    10.0   1_565     S
V5     V2    10.0   1_554     S
V5     V25    10.0   1_655     S
V5     V6    10.0   .     S
V5     V6    10.0   1_554     S
V5     V9    10.0   .     S
V5     V11    10.0   .     S
V5     V29    10.0   .     S
V6     V26    10.0   1_655     S
V6     V5    10.0   1_556     S
V6     V10    10.0   .     S
V6     V12    10.0   .     S
V6     V30    10.0   .     S
V7     V26    10.0   .     S
V7     V1    10.0   1_455     S
V7     V8    10.0   1_554     S
V7     V8    10.0   .     S
V7     V17    10.0   .     S
V7     V19    10.0   .     S
V7     V31    10.0   .     S
V8     V25    10.0   1_556     S
V8     V2    10.0   1_455     S
V8     V7    10.0   1_556     S
V8     V18    10.0   .     S
V8     V20    10.0   .     S
V8     V32    10.0   .     S
V9     V29    10.0   .     S
V9     V10    10.0   .     S
V9     V10    10.0   1_554     S
V9     V13    10.0   .     S
V9     V15    10.0   .     S
V9     V17    10.0   .     S
V10     V30    10.0   .     S
V10     V9    10.0   1_556     S
V10     V14    10.0   .     S
V10     V16    10.0   .     S
V10     V18    10.0   .     S
V11     V29    10.0   .     S
V11     V12    10.0   .     S
V11     V12    10.0   1_554     S
V11     V22    10.0   1_544     S
V11     V23    10.0   1_655     S
V11     V20    10.0   1_644     S
V12     V30    10.0   .     S
V12     V11    10.0   1_556     S
V12     V21    10.0   1_545     S
V12     V24    10.0   1_655     S
V12     V19    10.0   1_645     S
V13     V17    10.0   .     S
V13     V14    10.0   .     S
V13     V14    10.0   1_554     S
V13     V25    10.0   .     S
V13     V27    10.0   .     S
V13     V23    10.0   .     S
V14     V18    10.0   .     S
V14     V13    10.0   1_556     S
V14     V26    10.0   .     S
V14     V28    10.0   .     S
V14     V24    10.0   .     S
V15     V21    10.0   .     S
V15     V17    10.0   .     S
V15     V16    10.0   1_554     S
V15     V16    10.0   .     S
V16     V22    10.0   .     S
V16     V18    10.0   .     S
V16     V15    10.0   1_556     S
V17     V31    10.0   .     S
V17     V18    10.0   1_554     S
V17     V18    10.0   .     S
V18     V32    10.0   .     S
V18     V17    10.0   1_556     S
V19     V31    10.0   .     S
V19     V20    10.0   1_554     S
V19     V20    10.0   .     S
V19     V21    10.0   1_455     S
V19     V24    10.0   1_565     S
V19     V12    10.0   1_465     S
V20     V32    10.0   .     S
V20     V19    10.0   1_556     S
V20     V22    10.0   1_455     S
V20     V23    10.0   1_566     S
V20     V11    10.0   1_466     S
V21     V12    10.0   1_565     S
V21     V19    10.0   1_655     S
V21     V22    10.0   1_554     S
V21     V22    10.0   .     S
V22     V11    10.0   1_566     S
V22     V20    10.0   1_655     S
V22     V21    10.0   1_556     S
V23     V20    10.0   1_544     S
V23     V11    10.0   1_455     S
V23     V24    10.0   .     S
V23     V24    10.0   1_554     S
V23     V25    10.0   .     S
V23     V27    10.0   .     S
V24     V19    10.0   1_545     S
V24     V12    10.0   1_455     S
V24     V23    10.0   1_556     S
V24     V26    10.0   .     S
V24     V28    10.0   .     S
V25     V5    10.0   1_455     S
V25     V8    10.0   1_554     S
V25     V2    10.0   1_454     S
V25     V26    10.0   .     S
V25     V26    10.0   1_554     S
V26     V6    10.0   1_455     S
V26     V1    10.0   1_455     S
V26     V25    10.0   1_556     S
V27     V28    10.0   .     S
V27     V28    10.0   1_554     S
V27     V29    10.0   .     S
V27     V31    10.0   1_545     S
V27     V3    10.0   1_545     S
V28     V27    10.0   1_556     S
V28     V30    10.0   .     S
V28     V32    10.0   1_545     S
V28     V4    10.0   1_545     S
V29     V3    10.0   1_545     S
V29     V30    10.0   .     S
V29     V30    10.0   1_554     S
V30     V4    10.0   1_545     S
V30     V29    10.0   1_556     S
V31     V27    10.0   1_565     S
V31     V32    10.0   1_554     S
V31     V32    10.0   .     S
V32     V28    10.0   1_565     S
V32     V31    10.0   1_556     S
