data_xfd
_audit_creation_date              2020-02-02
_audit_creation_method            'Pymatgen'
_symmetry_space_group_name_H-M    'P1'
_symmetry_Int_Tables_number       1
loop_
_symmetry_equiv_pos_as_xyz
  x,y,z
_cell_length_a                    22.6103
_cell_length_b                    22.6103
_cell_length_c                    23.747
_cell_angle_alpha                 90.0
_cell_angle_beta                 90.0
_cell_angle_gamma                 90.0
loop_
_atom_site_label
_atom_site_type_symbol
_atom_site_fract_x
_atom_site_fract_y
_atom_site_fract_z
V1     V     0.0   0.0289   0.7261
V2     V     0.7789   0.25   0.0239
V3     V     0.0   0.4711   0.7261
V4     V     0.2211   0.25   0.0239
V5     V     0.7211   0.25   0.4761
V6     V     0.2789   0.25   0.4761
V7     V     0.5   0.0289   0.7739
V8     V     0.5   0.4711   0.7739
V9     V     0.7211   0.75   0.5239
V10     V     0.5   0.5289   0.2261
V11     V     0.2789   0.75   0.5239
V12     V     0.5   0.9711   0.2261
V13     V     0.0   0.9711   0.2739
V14     V     0.7789   0.75   0.9761
V15     V     0.2211   0.75   0.9761
V16     V     0.0   0.5289   0.2739
loop_
_geom_bond_atom_site_label_1
_geom_bond_atom_site_label_2
_geom_bond_distance
_geom_bond_site_symmetry_2
_ccdc_geom_bond_type
V1     V4    10.0   1_556     S
V1     V3    10.0   .     S
V1     V2    10.0   1_456     S
V1     V5    10.0   1_455     S
V1     V6    10.0   .     S
V1     V14    10.0   1_445     S
V1     V15    10.0   1_545     S
V2     V1    10.0   1_654     S
V2     V4    10.0   1_655     S
V2     V3    10.0   1_654     S
V2     V8    10.0   1_554     S
V2     V7    10.0   1_554     S
V2     V13    10.0   1_645     S
V2     V16    10.0   1_655     S
V3     V4    10.0   1_556     S
V3     V2    10.0   1_456     S
V3     V6    10.0   .     S
V3     V5    10.0   1_455     S
V3     V15    10.0   .     S
V3     V14    10.0   1_455     S
V4     V1    10.0   1_554     S
V4     V2    10.0   1_455     S
V4     V3    10.0   1_554     S
V4     V7    10.0   1_554     S
V4     V13    10.0   1_545     S
V4     V16    10.0   .     S
V4     V8    10.0   1_554     S
V5     V1    10.0   1_655     S
V5     V7    10.0   .     S
V5     V8    10.0   .     S
V5     V6    10.0   .     S
V5     V10    10.0   .     S
V5     V12    10.0   1_545     S
V5     V3    10.0   1_655     S
V6     V7    10.0   .     S
V6     V8    10.0   .     S
V6     V12    10.0   1_545     S
V6     V10    10.0   .     S
V7     V2    10.0   1_556     S
V7     V4    10.0   1_556     S
V7     V8    10.0   .     S
V7     V9    10.0   1_545     S
V7     V11    10.0   1_545     S
V8     V2    10.0   1_556     S
V8     V9    10.0   .     S
V8     V11    10.0   .     S
V8     V4    10.0   1_556     S
V9     V12    10.0   .     S
V9     V10    10.0   .     S
V9     V11    10.0   .     S
V9     V7    10.0   1_565     S
V9     V13    10.0   1_655     S
V9     V16    10.0   1_655     S
V10     V12    10.0   .     S
V10     V11    10.0   .     S
V10     V15    10.0   1_554     S
V10     V14    10.0   1_554     S
V11     V12    10.0   .     S
V11     V16    10.0   .     S
V11     V7    10.0   1_565     S
V11     V13    10.0   .     S
V12     V5    10.0   1_565     S
V12     V15    10.0   1_554     S
V12     V14    10.0   1_554     S
V12     V6    10.0   1_565     S
V13     V15    10.0   1_554     S
V13     V14    10.0   1_454     S
V13     V16    10.0   .     S
V13     V4    10.0   1_565     S
V13     V9    10.0   1_455     S
V13     V2    10.0   1_465     S
V14     V13    10.0   1_656     S
V14     V15    10.0   1_655     S
V14     V16    10.0   1_656     S
V14     V12    10.0   1_556     S
V14     V3    10.0   1_655     S
V14     V1    10.0   1_665     S
V14     V10    10.0   1_556     S
V15     V13    10.0   1_556     S
V15     V14    10.0   1_455     S
V15     V16    10.0   1_556     S
V15     V12    10.0   1_556     S
V15     V10    10.0   1_556     S
V15     V1    10.0   1_565     S
V16     V15    10.0   1_554     S
V16     V14    10.0   1_454     S
V16     V9    10.0   1_455     S
V16     V2    10.0   1_455     S
