data_xfh
_audit_creation_date              2020-02-02
_audit_creation_method            'Pymatgen'
_symmetry_space_group_name_H-M    'P1'
_symmetry_Int_Tables_number       1
loop_
_symmetry_equiv_pos_as_xyz
  x,y,z
_cell_length_a                    18.5131
_cell_length_b                    18.5131
_cell_length_c                    39.1863
_cell_angle_alpha                 90.0
_cell_angle_beta                 90.0
_cell_angle_gamma                 90.0
loop_
_atom_site_label
_atom_site_type_symbol
_atom_site_fract_x
_atom_site_fract_y
_atom_site_fract_z
V1     V     0.3042   0.5542   0.9159
V2     V     0.1958   0.4458   0.4159
V3     V     0.3042   0.4458   0.6659
V4     V     0.1958   0.5542   0.1659
V5     V     0.3042   0.9458   0.3341
V6     V     0.1958   0.9458   0.5841
V7     V     0.3042   0.0542   0.0841
V8     V     0.1958   0.0542   0.8341
V9     V     0.6958   0.4458   0.0841
V10     V     0.6958   0.5542   0.3341
V11     V     0.8042   0.5542   0.5841
V12     V     0.8042   0.4458   0.8341
V13     V     0.6958   0.9458   0.9159
V14     V     0.8042   0.9458   0.1659
V15     V     0.8042   0.0542   0.4159
V16     V     0.6958   0.0542   0.6659
loop_
_geom_bond_atom_site_label_1
_geom_bond_atom_site_label_2
_geom_bond_distance
_geom_bond_site_symmetry_2
_ccdc_geom_bond_type
V1     V8    10.0   .     S
V1     V4    10.0   1_556     S
V1     V3    10.0   .     S
V1     V8    10.0   1_565     S
V1     V9    10.0   1_556     S
V1     V12    10.0   .     S
V1     V12    10.0   1_455     S
V2     V11    10.0   1_455     S
V2     V10    10.0   1_455     S
V2     V3    10.0   .     S
V2     V4    10.0   .     S
V2     V5    10.0   .     S
V2     V5    10.0   1_545     S
V2     V10    10.0   .     S
V3     V11    10.0   1_455     S
V3     V8    10.0   .     S
V3     V6    10.0   1_545     S
V3     V6    10.0   .     S
V3     V11    10.0   .     S
V4     V1    10.0   1_554     S
V4     V9    10.0   1_455     S
V4     V5    10.0   .     S
V4     V7    10.0   1_565     S
V4     V9    10.0   .     S
V4     V7    10.0   .     S
V5     V15    10.0   1_465     S
V5     V6    10.0   .     S
V5     V7    10.0   1_565     S
V5     V2    10.0   1_565     S
V5     V15    10.0   1_565     S
V6     V3    10.0   1_565     S
V6     V15    10.0   1_465     S
V6     V16    10.0   1_465     S
V6     V8    10.0   1_565     S
V6     V16    10.0   1_565     S
V7     V13    10.0   1_544     S
V7     V14    10.0   1_545     S
V7     V4    10.0   1_545     S
V7     V5    10.0   1_545     S
V7     V8    10.0   1_554     S
V7     V14    10.0   1_445     S
V8     V13    10.0   1_545     S
V8     V7    10.0   1_556     S
V8     V6    10.0   1_545     S
V8     V13    10.0   1_445     S
V8     V1    10.0   1_545     S
V9     V4    10.0   1_655     S
V9     V14    10.0   .     S
V9     V1    10.0   1_554     S
V9     V10    10.0   .     S
V9     V12    10.0   1_554     S
V9     V14    10.0   1_545     S
V10     V2    10.0   1_655     S
V10     V14    10.0   .     S
V10     V15    10.0   1_565     S
V10     V11    10.0   .     S
V10     V15    10.0   .     S
V11     V2    10.0   1_655     S
V11     V3    10.0   1_655     S
V11     V16    10.0   .     S
V11     V12    10.0   .     S
V11     V16    10.0   1_565     S
V12     V16    10.0   .     S
V12     V13    10.0   1_545     S
V12     V9    10.0   1_556     S
V12     V1    10.0   1_655     S
V12     V13    10.0   .     S
V13     V12    10.0   1_565     S
V13     V7    10.0   1_566     S
V13     V8    10.0   1_565     S
V13     V8    10.0   1_665     S
V13     V14    10.0   1_556     S
V13     V16    10.0   1_565     S
V14     V7    10.0   1_565     S
V14     V13    10.0   1_554     S
V14     V15    10.0   1_565     S
V14     V9    10.0   1_565     S
V14     V7    10.0   1_665     S
V15     V6    10.0   1_645     S
V15     V5    10.0   1_645     S
V15     V10    10.0   1_545     S
V15     V16    10.0   .     S
V15     V14    10.0   1_545     S
V15     V5    10.0   1_545     S
V16     V6    10.0   1_645     S
V16     V13    10.0   1_545     S
V16     V11    10.0   1_545     S
V16     V6    10.0   1_545     S
