data_xfj
_audit_creation_date              2020-02-02
_audit_creation_method            'Pymatgen'
_symmetry_space_group_name_H-M    'P1'
_symmetry_Int_Tables_number       1
loop_
_symmetry_equiv_pos_as_xyz
  x,y,z
_cell_length_a                    23.3694
_cell_length_b                    23.3694
_cell_length_c                    22.5324
_cell_angle_alpha                 90.0
_cell_angle_beta                 90.0
_cell_angle_gamma                 90.0
loop_
_atom_site_label
_atom_site_type_symbol
_atom_site_fract_x
_atom_site_fract_y
_atom_site_fract_z
V1     V     0.4617   0.2895   0.8431
V2     V     0.5383   0.7105   0.8431
V3     V     0.9617   0.7105   0.9069
V4     V     0.0383   0.2895   0.9069
V5     V     0.7105   0.0383   0.0931
V6     V     0.2895   0.9617   0.0931
V7     V     0.2895   0.5383   0.1569
V8     V     0.7105   0.4617   0.1569
V9     V     0.9617   0.7895   0.3431
V10     V     0.0383   0.2105   0.3431
V11     V     0.5383   0.7895   0.4069
V12     V     0.4617   0.2105   0.4069
V13     V     0.7895   0.4617   0.5931
V14     V     0.2105   0.5383   0.5931
V15     V     0.7895   0.0383   0.6569
V16     V     0.2105   0.9617   0.6569
loop_
_geom_bond_atom_site_label_1
_geom_bond_atom_site_label_2
_geom_bond_distance
_geom_bond_site_symmetry_2
_ccdc_geom_bond_type
V1     V4    10.0   .     S
V1     V7    10.0   1_556     S
V1     V14    10.0   .     S
V1     V2    10.0   .     S
V1     V5    10.0   1_556     S
V1     V8    10.0   1_556     S
V1     V12    10.0   .     S
V2     V13    10.0   .     S
V2     V3    10.0   .     S
V2     V8    10.0   1_556     S
V2     V6    10.0   1_556     S
V2     V7    10.0   1_556     S
V2     V11    10.0   .     S
V3     V13    10.0   .     S
V3     V8    10.0   1_556     S
V3     V4    10.0   1_655     S
V3     V14    10.0   1_655     S
V3     V16    10.0   1_655     S
V3     V9    10.0   1_556     S
V4     V14    10.0   .     S
V4     V7    10.0   1_556     S
V4     V3    10.0   1_455     S
V4     V13    10.0   1_455     S
V4     V15    10.0   1_455     S
V4     V10    10.0   1_556     S
V5     V1    10.0   1_554     S
V5     V6    10.0   1_545     S
V5     V8    10.0   .     S
V5     V12    10.0   .     S
V5     V11    10.0   1_545     S
V5     V9    10.0   1_545     S
V5     V15    10.0   1_554     S
V6     V2    10.0   1_554     S
V6     V5    10.0   1_565     S
V6     V7    10.0   .     S
V6     V11    10.0   .     S
V6     V10    10.0   1_565     S
V6     V12    10.0   1_565     S
V6     V16    10.0   1_554     S
V7     V1    10.0   1_554     S
V7     V4    10.0   1_554     S
V7     V2    10.0   1_554     S
V7     V11    10.0   .     S
V7     V8    10.0   .     S
V7     V14    10.0   .     S
V8     V2    10.0   1_554     S
V8     V3    10.0   1_554     S
V8     V1    10.0   1_554     S
V8     V12    10.0   .     S
V8     V13    10.0   .     S
V9     V11    10.0   .     S
V9     V15    10.0   1_565     S
V9     V5    10.0   1_565     S
V9     V10    10.0   1_665     S
V9     V14    10.0   1_655     S
V9     V16    10.0   1_655     S
V9     V3    10.0   1_554     S
V10     V6    10.0   1_545     S
V10     V9    10.0   1_445     S
V10     V12    10.0   .     S
V10     V16    10.0   1_545     S
V10     V13    10.0   1_455     S
V10     V15    10.0   1_455     S
V10     V4    10.0   1_554     S
V11     V5    10.0   1_565     S
V11     V15    10.0   1_565     S
V11     V12    10.0   1_565     S
V12     V6    10.0   1_545     S
V12     V16    10.0   1_545     S
V12     V11    10.0   1_545     S
V13     V10    10.0   1_655     S
V13     V14    10.0   1_655     S
V13     V15    10.0   .     S
V13     V4    10.0   1_655     S
V14     V9    10.0   1_455     S
V14     V13    10.0   1_455     S
V14     V16    10.0   .     S
V14     V3    10.0   1_455     S
V15     V9    10.0   1_545     S
V15     V11    10.0   1_545     S
V15     V10    10.0   1_655     S
V15     V4    10.0   1_655     S
V15     V16    10.0   1_645     S
V15     V5    10.0   1_556     S
V16     V10    10.0   1_565     S
V16     V12    10.0   1_565     S
V16     V9    10.0   1_455     S
V16     V3    10.0   1_455     S
V16     V15    10.0   1_465     S
V16     V6    10.0   1_556     S
