data_xfo
_audit_creation_date              2020-02-02
_audit_creation_method            'Pymatgen'
_symmetry_space_group_name_H-M    'P1'
_symmetry_Int_Tables_number       1
loop_
_symmetry_equiv_pos_as_xyz
  x,y,z
_cell_length_a                    43.2107
_cell_length_b                    43.2107
_cell_length_c                    17.8743
_cell_angle_alpha                 90.0
_cell_angle_beta                 90.0
_cell_angle_gamma                 90.0
loop_
_atom_site_label
_atom_site_type_symbol
_atom_site_fract_x
_atom_site_fract_y
_atom_site_fract_z
V1     V     0.6541   0.1981   0.6565
V2     V     0.5519   0.4041   0.5935
V3     V     0.4481   0.0959   0.5935
V4     V     0.3459   0.3019   0.6565
V5     V     0.4481   0.4041   0.0935
V6     V     0.6541   0.3019   0.1565
V7     V     0.5519   0.0959   0.0935
V8     V     0.3459   0.1981   0.1565
V9     V     0.6541   0.6981   0.3435
V10     V     0.5519   0.9041   0.4065
V11     V     0.4481   0.5959   0.4065
V12     V     0.3459   0.8019   0.3435
V13     V     0.6541   0.8019   0.8435
V14     V     0.3459   0.6981   0.8435
V15     V     0.4481   0.9041   0.9065
V16     V     0.5519   0.5959   0.9065
V17     V     0.8459   0.6981   0.6565
V18     V     0.1541   0.8019   0.6565
V19     V     0.0519   0.5959   0.5935
V20     V     0.9481   0.9041   0.5935
V21     V     0.9481   0.5959   0.0935
V22     V     0.8459   0.8019   0.1565
V23     V     0.1541   0.6981   0.1565
V24     V     0.0519   0.9041   0.0935
V25     V     0.0519   0.4041   0.9065
V26     V     0.1541   0.1981   0.8435
V27     V     0.8459   0.3019   0.8435
V28     V     0.9481   0.0959   0.9065
V29     V     0.1541   0.3019   0.3435
V30     V     0.0519   0.0959   0.4065
V31     V     0.9481   0.4041   0.4065
V32     V     0.8459   0.1981   0.3435
loop_
_geom_bond_atom_site_label_1
_geom_bond_atom_site_label_2
_geom_bond_distance
_geom_bond_site_symmetry_2
_ccdc_geom_bond_type
V1     V7    10.0   1_556     S
V1     V6    10.0   1_556     S
V1     V3    10.0   .     S
V1     V2    10.0   .     S
V1     V6    10.0   .     S
V1     V27    10.0   .     S
V1     V32    10.0   .     S
V2     V11    10.0   .     S
V2     V16    10.0   .     S
V2     V5    10.0   1_556     S
V2     V4    10.0   .     S
V2     V5    10.0   .     S
V2     V6    10.0   .     S
V3     V7    10.0   1_556     S
V3     V4    10.0   .     S
V3     V7    10.0   .     S
V3     V8    10.0   .     S
V3     V10    10.0   1_545     S
V3     V15    10.0   1_545     S
V4     V26    10.0   .     S
V4     V29    10.0   .     S
V4     V5    10.0   1_556     S
V4     V8    10.0   1_556     S
V4     V8    10.0   .     S
V5     V16    10.0   1_554     S
V5     V11    10.0   .     S
V5     V2    10.0   1_554     S
V5     V4    10.0   1_554     S
V5     V6    10.0   .     S
V5     V8    10.0   .     S
V6     V1    10.0   1_554     S
V6     V7    10.0   .     S
V6     V32    10.0   .     S
V6     V27    10.0   1_554     S
V7     V3    10.0   1_554     S
V7     V1    10.0   1_554     S
V7     V8    10.0   .     S
V7     V15    10.0   1_544     S
V7     V10    10.0   1_545     S
V8     V29    10.0   .     S
V8     V26    10.0   1_554     S
V8     V4    10.0   1_554     S
V9     V16    10.0   1_554     S
V9     V13    10.0   1_554     S
V9     V10    10.0   .     S
V9     V11    10.0   .     S
V9     V13    10.0   .     S
V9     V17    10.0   .     S
V9     V22    10.0   .     S
V10     V3    10.0   1_565     S
V10     V7    10.0   1_565     S
V10     V12    10.0   .     S
V10     V15    10.0   1_554     S
V10     V15    10.0   .     S
V10     V13    10.0   .     S
V11     V16    10.0   1_554     S
V11     V16    10.0   .     S
V11     V14    10.0   .     S
V11     V12    10.0   .     S
V12     V14    10.0   .     S
V12     V15    10.0   1_554     S
V12     V14    10.0   1_554     S
V12     V23    10.0   .     S
V12     V18    10.0   .     S
V13     V9    10.0   1_556     S
V13     V15    10.0   .     S
V13     V16    10.0   .     S
V13     V17    10.0   .     S
V13     V22    10.0   1_556     S
V14     V12    10.0   1_556     S
V14     V15    10.0   .     S
V14     V16    10.0   .     S
V14     V23    10.0   1_556     S
V14     V18    10.0   .     S
V15     V3    10.0   1_565     S
V15     V7    10.0   1_566     S
V15     V10    10.0   1_556     S
V15     V12    10.0   1_556     S
V16     V5    10.0   1_556     S
V16     V11    10.0   1_556     S
V16     V9    10.0   1_556     S
V17     V22    10.0   .     S
V17     V22    10.0   1_556     S
V17     V21    10.0   1_556     S
V17     V19    10.0   1_655     S
V17     V20    10.0   .     S
V18     V24    10.0   1_556     S
V18     V23    10.0   1_556     S
V18     V19    10.0   .     S
V18     V20    10.0   1_455     S
V18     V23    10.0   .     S
V19     V31    10.0   1_455     S
V19     V25    10.0   .     S
V19     V21    10.0   1_456     S
V19     V17    10.0   1_455     S
V19     V23    10.0   .     S
V19     V21    10.0   1_455     S
V20     V24    10.0   1_656     S
V20     V22    10.0   .     S
V20     V24    10.0   1_655     S
V20     V18    10.0   1_655     S
V20     V30    10.0   1_665     S
V20     V28    10.0   1_565     S
V21     V31    10.0   .     S
V21     V25    10.0   1_654     S
V21     V17    10.0   1_554     S
V21     V19    10.0   1_654     S
V21     V19    10.0   1_655     S
V21     V22    10.0   .     S
V21     V23    10.0   1_655     S
V22     V13    10.0   1_554     S
V22     V17    10.0   1_554     S
V22     V24    10.0   1_655     S
V23     V18    10.0   1_554     S
V23     V24    10.0   .     S
V23     V21    10.0   1_455     S
V23     V14    10.0   1_554     S
V24     V20    10.0   1_454     S
V24     V18    10.0   1_554     S
V24     V20    10.0   1_455     S
V24     V22    10.0   1_455     S
V24     V30    10.0   1_565     S
V24     V28    10.0   1_464     S
V25     V21    10.0   1_456     S
V25     V29    10.0   1_556     S
V25     V31    10.0   1_456     S
V25     V26    10.0   .     S
V25     V27    10.0   1_455     S
V25     V31    10.0   1_455     S
V26     V8    10.0   1_556     S
V26     V30    10.0   .     S
V26     V29    10.0   .     S
V26     V29    10.0   1_556     S
V26     V28    10.0   1_455     S
V27     V6    10.0   1_556     S
V27     V28    10.0   .     S
V27     V25    10.0   1_655     S
V27     V32    10.0   1_556     S
V27     V32    10.0   .     S
V27     V31    10.0   .     S
V28     V30    10.0   1_655     S
V28     V26    10.0   1_655     S
V28     V32    10.0   1_556     S
V28     V30    10.0   1_656     S
V28     V20    10.0   1_545     S
V28     V24    10.0   1_646     S
V29     V26    10.0   1_554     S
V29     V25    10.0   1_554     S
V29     V31    10.0   1_455     S
V29     V30    10.0   .     S
V30     V28    10.0   1_455     S
V30     V28    10.0   1_454     S
V30     V32    10.0   1_455     S
V30     V20    10.0   1_445     S
V30     V24    10.0   1_545     S
V31     V19    10.0   1_655     S
V31     V25    10.0   1_654     S
V31     V25    10.0   1_655     S
V31     V29    10.0   1_655     S
V31     V32    10.0   .     S
V32     V27    10.0   1_554     S
V32     V28    10.0   1_554     S
V32     V30    10.0   1_655     S
