data_xik
_audit_creation_date              2020-02-02
_audit_creation_method            'Pymatgen'
_symmetry_space_group_name_H-M    'P1'
_symmetry_Int_Tables_number       1
loop_
_symmetry_equiv_pos_as_xyz
  x,y,z
_cell_length_a                    47.3056
_cell_length_b                    47.3056
_cell_length_c                    47.3056
_cell_angle_alpha                 90.0
_cell_angle_beta                 90.0
_cell_angle_gamma                 90.0
loop_
_atom_site_label
_atom_site_type_symbol
_atom_site_fract_x
_atom_site_fract_y
_atom_site_fract_z
V1     V     0.8609   0.2886   0.5
V2     V     0.8609   0.5   0.2886
V3     V     0.8609   0.5   0.7114
V4     V     0.8609   0.7114   0.5
Er5     Er     0.8628   0.5   0.5
V6     V     0.2886   0.8609   0.5
V7     V     0.5   0.8609   0.2886
V8     V     0.5   0.8609   0.7114
V9     V     0.7114   0.8609   0.5
Er10     Er     0.5   0.8628   0.5
V11     V     0.5   0.2886   0.8609
V12     V     0.2886   0.5   0.8609
V13     V     0.7114   0.5   0.8609
V14     V     0.5   0.7114   0.8609
Er15     Er     0.5   0.5   0.8628
V16     V     0.3609   0.0   0.7886
V17     V     0.3609   0.7886   0.0
V18     V     0.3609   0.2114   0.0
V19     V     0.3609   0.0   0.2114
Er20     Er     0.3628   0.0   0.0
V21     V     0.0   0.6391   0.7886
V22     V     0.7886   0.6391   0.0
V23     V     0.2114   0.6391   0.0
V24     V     0.0   0.6391   0.2114
Er25     Er     0.0   0.6372   0.0
V26     V     0.6391   0.7886   0.0
V27     V     0.6391   0.0   0.7886
V28     V     0.6391   0.2114   0.0
V29     V     0.6391   0.0   0.2114
Er30     Er     0.6372   0.0   0.0
V31     V     0.2886   0.5   0.1391
V32     V     0.5   0.2886   0.1391
V33     V     0.5   0.7114   0.1391
V34     V     0.7114   0.5   0.1391
Er35     Er     0.5   0.5   0.1372
V36     V     0.7886   0.3609   0.0
V37     V     0.0   0.3609   0.7886
V38     V     0.2114   0.3609   0.0
V39     V     0.0   0.3609   0.2114
Er40     Er     0.0   0.3628   0.0
V41     V     0.7886   0.0   0.6391
V42     V     0.0   0.7886   0.6391
V43     V     0.0   0.2114   0.6391
V44     V     0.2114   0.0   0.6391
Er45     Er     0.0   0.0   0.6372
V46     V     0.1391   0.2886   0.5
V47     V     0.1391   0.5   0.2886
V48     V     0.1391   0.5   0.7114
V49     V     0.1391   0.7114   0.5
Er50     Er     0.1372   0.5   0.5
V51     V     0.2886   0.1391   0.5
V52     V     0.5   0.1391   0.2886
V53     V     0.5   0.1391   0.7114
V54     V     0.7114   0.1391   0.5
Er55     Er     0.5   0.1372   0.5
V56     V     0.0   0.7886   0.3609
V57     V     0.7886   0.0   0.3609
V58     V     0.2114   0.0   0.3609
V59     V     0.0   0.2114   0.3609
Er60     Er     0.0   0.0   0.3628
loop_
_geom_bond_atom_site_label_1
_geom_bond_atom_site_label_2
_geom_bond_distance
_geom_bond_site_symmetry_2
_ccdc_geom_bond_type
V1     Er5    10.0   .     S
V1     V59    10.0   1_655     S
V1     V43    10.0   1_655     S
V1     V54    10.0   .     S
V2     Er5    10.0   .     S
V2     V24    10.0   1_655     S
V2     V39    10.0   1_655     S
V2     V34    10.0   .     S
V3     Er5    10.0   .     S
V3     V21    10.0   1_655     S
V3     V37    10.0   1_655     S
V3     V13    10.0   .     S
V4     Er5    10.0   .     S
V4     V42    10.0   1_655     S
V4     V56    10.0   1_655     S
V4     V9    10.0   .     S
V6     Er10    10.0   .     S
V6     V58    10.0   1_565     S
V6     V44    10.0   1_565     S
V6     V49    10.0   .     S
V7     Er10    10.0   .     S
V7     V19    10.0   1_565     S
V7     V29    10.0   1_565     S
V7     V33    10.0   .     S
V8     Er10    10.0   .     S
V8     V16    10.0   1_565     S
V8     V27    10.0   1_565     S
V8     V14    10.0   .     S
V9     Er10    10.0   .     S
V9     V41    10.0   1_565     S
V9     V57    10.0   1_565     S
V11     Er15    10.0   .     S
V11     V18    10.0   1_556     S
V11     V28    10.0   1_556     S
V11     V53    10.0   .     S
V12     Er15    10.0   .     S
V12     V38    10.0   1_556     S
V12     V23    10.0   1_556     S
V12     V48    10.0   .     S
V13     Er15    10.0   .     S
V13     V22    10.0   1_556     S
V13     V36    10.0   1_556     S
V14     Er15    10.0   .     S
V14     V17    10.0   1_556     S
V14     V26    10.0   1_556     S
V16     Er20    10.0   1_556     S
V16     V8    10.0   1_545     S
V16     V53    10.0   .     S
V16     V44    10.0   .     S
V17     Er20    10.0   1_565     S
V17     V14    10.0   1_554     S
V17     V33    10.0   .     S
V17     V23    10.0   .     S
V18     Er20    10.0   .     S
V18     V11    10.0   1_554     S
V18     V32    10.0   .     S
V18     V38    10.0   .     S
V19     Er20    10.0   .     S
V19     V7    10.0   1_545     S
V19     V52    10.0   .     S
V19     V58    10.0   .     S
Er20     V16    10.0   1_554     S
Er20     V17    10.0   1_545     S
V21     Er25    10.0   1_556     S
V21     V3    10.0   1_455     S
V21     V48    10.0   .     S
V21     V42    10.0   .     S
V22     Er25    10.0   1_655     S
V22     V13    10.0   1_554     S
V22     V34    10.0   .     S
V22     V26    10.0   .     S
V23     Er25    10.0   .     S
V23     V12    10.0   1_554     S
V23     V31    10.0   .     S
V24     Er25    10.0   .     S
V24     V2    10.0   1_455     S
V24     V47    10.0   .     S
V24     V56    10.0   .     S
Er25     V21    10.0   1_554     S
Er25     V22    10.0   1_455     S
V26     Er30    10.0   1_565     S
V26     V14    10.0   1_554     S
V26     V33    10.0   .     S
V27     Er30    10.0   1_556     S
V27     V8    10.0   1_545     S
V27     V53    10.0   .     S
V27     V41    10.0   .     S
V28     Er30    10.0   .     S
V28     V11    10.0   1_554     S
V28     V32    10.0   .     S
V28     V36    10.0   .     S
V29     Er30    10.0   .     S
V29     V7    10.0   1_545     S
V29     V52    10.0   .     S
V29     V57    10.0   .     S
Er30     V26    10.0   1_545     S
Er30     V27    10.0   1_554     S
V31     Er35    10.0   .     S
V31     V38    10.0   .     S
V31     V47    10.0   .     S
V32     Er35    10.0   .     S
V32     V52    10.0   .     S
V33     Er35    10.0   .     S
V34     Er35    10.0   .     S
V34     V36    10.0   .     S
V36     Er40    10.0   1_655     S
V36     V13    10.0   1_554     S
V37     Er40    10.0   1_556     S
V37     V3    10.0   1_455     S
V37     V48    10.0   .     S
V37     V43    10.0   .     S
V38     Er40    10.0   .     S
V38     V12    10.0   1_554     S
V39     Er40    10.0   .     S
V39     V2    10.0   1_455     S
V39     V47    10.0   .     S
V39     V59    10.0   .     S
Er40     V36    10.0   1_455     S
Er40     V37    10.0   1_554     S
V41     Er45    10.0   1_655     S
V41     V9    10.0   1_545     S
V41     V54    10.0   .     S
V42     Er45    10.0   1_565     S
V42     V4    10.0   1_455     S
V42     V49    10.0   .     S
V43     Er45    10.0   .     S
V43     V1    10.0   1_455     S
V43     V46    10.0   .     S
V44     Er45    10.0   .     S
V44     V6    10.0   1_545     S
V44     V51    10.0   .     S
Er45     V41    10.0   1_455     S
Er45     V42    10.0   1_545     S
V46     Er50    10.0   .     S
V46     V59    10.0   .     S
V46     V51    10.0   .     S
V47     Er50    10.0   .     S
V48     Er50    10.0   .     S
V49     Er50    10.0   .     S
V49     V56    10.0   .     S
V51     Er55    10.0   .     S
V51     V58    10.0   .     S
V52     Er55    10.0   .     S
V53     Er55    10.0   .     S
V54     Er55    10.0   .     S
V54     V57    10.0   .     S
V56     Er60    10.0   1_565     S
V56     V4    10.0   1_455     S
V57     Er60    10.0   1_655     S
V57     V9    10.0   1_545     S
V58     Er60    10.0   .     S
V58     V6    10.0   1_545     S
V59     Er60    10.0   .     S
V59     V1    10.0   1_455     S
Er60     V56    10.0   1_545     S
Er60     V57    10.0   1_455     S
