data_xlla
_audit_creation_date              2020-02-02
_audit_creation_method            'Pymatgen'
_symmetry_space_group_name_H-M    'P1'
_symmetry_Int_Tables_number       1
loop_
_symmetry_equiv_pos_as_xyz
  x,y,z
_cell_length_a                    81.9311
_cell_length_b                    81.9311
_cell_length_c                    83.3851
_cell_angle_alpha                 90.0
_cell_angle_beta                 90.0
_cell_angle_gamma                 90.0
loop_
_atom_site_label
_atom_site_type_symbol
_atom_site_fract_x
_atom_site_fract_y
_atom_site_fract_z
He1     He     0.2474   0.5   0.94
H2     H     0.2444   0.5611   0.8361
H3     H     0.2444   0.4389   0.8361
He4     He     0.2474   0.5   0.06
H5     H     0.2444   0.4389   0.1639
H6     H     0.2444   0.5611   0.1639
He7     He     0.5   0.7526   0.94
H8     H     0.5611   0.7556   0.8361
H9     H     0.4389   0.7556   0.8361
He10     He     0.5   0.7526   0.06
H11     H     0.4389   0.7556   0.1639
H12     H     0.5611   0.7556   0.1639
He13     He     0.7526   0.5   0.94
H14     H     0.7556   0.4389   0.8361
H15     H     0.7556   0.5611   0.8361
He16     He     0.7526   0.5   0.06
H17     H     0.7556   0.5611   0.1639
H18     H     0.7556   0.4389   0.1639
He19     He     0.5   0.2474   0.94
H20     H     0.4389   0.2444   0.8361
H21     H     0.5611   0.2444   0.8361
He22     He     0.5   0.2474   0.06
H23     H     0.5611   0.2444   0.1639
H24     H     0.4389   0.2444   0.1639
He25     He     0.2526   0.0   0.44
H26     H     0.2556   0.0611   0.3361
H27     H     0.2556   0.9389   0.3361
He28     He     0.2526   0.0   0.56
H29     H     0.2556   0.0611   0.6639
H30     H     0.2556   0.9389   0.6639
He31     He     0.0   0.7474   0.44
H32     H     0.0611   0.7444   0.3361
H33     H     0.9389   0.7444   0.3361
He34     He     0.0   0.7474   0.56
H35     H     0.0611   0.7444   0.6639
H36     H     0.9389   0.7444   0.6639
He37     He     0.7474   0.0   0.44
H38     H     0.7444   0.0611   0.3361
H39     H     0.7444   0.9389   0.3361
He40     He     0.7474   0.0   0.56
H41     H     0.7444   0.0611   0.6639
H42     H     0.7444   0.9389   0.6639
V43     V     0.6472   0.6472   0.5
Er44     Er     0.7218   0.7218   0.5599
Er45     Er     0.7218   0.7218   0.4401
Ti46     Ti     0.561   0.561   0.5
S47     S     0.7836   0.7836   0.8205
Ce48     Ce     0.6708   0.7572   0.7831
Ce49     Ce     0.7572   0.6708   0.7831
S50     S     0.7164   0.7164   0.6795
Ce51     Ce     0.7428   0.8292   0.7169
Ce52     Ce     0.8292   0.7428   0.7169
V53     V     0.8528   0.8528   0.0
Er54     Er     0.7782   0.7782   0.9401
Er55     Er     0.7782   0.7782   0.0599
Ti56     Ti     0.939   0.939   0.0
S57     S     0.7836   0.7836   0.1795
Ce58     Ce     0.7572   0.6708   0.2169
Ce59     Ce     0.6708   0.7572   0.2169
S60     S     0.7164   0.7164   0.3205
Ce61     Ce     0.8292   0.7428   0.2831
Ce62     Ce     0.7428   0.8292   0.2831
V63     V     0.6472   0.3528   0.5
Er64     Er     0.7218   0.2782   0.5599
Er65     Er     0.7218   0.2782   0.4401
Ti66     Ti     0.561   0.439   0.5
S67     S     0.7836   0.2164   0.8205
Ce68     Ce     0.7572   0.3292   0.7831
Ce69     Ce     0.6708   0.2428   0.7831
S70     S     0.7164   0.2836   0.6795
Ce71     Ce     0.7428   0.1708   0.7169
Ce72     Ce     0.8292   0.2572   0.7169
V73     V     0.8528   0.1472   0.0
Er74     Er     0.7782   0.2218   0.9401
Er75     Er     0.7782   0.2218   0.0599
Ti76     Ti     0.939   0.061   0.0
S77     S     0.7836   0.2164   0.1795
Ce78     Ce     0.7572   0.3292   0.2169
Ce79     Ce     0.6708   0.2428   0.2169
S80     S     0.7164   0.2836   0.3205
Ce81     Ce     0.7428   0.1708   0.2831
Ce82     Ce     0.8292   0.2572   0.2831
V83     V     0.3528   0.3528   0.5
Er84     Er     0.2782   0.2782   0.5599
Er85     Er     0.2782   0.2782   0.4401
Ti86     Ti     0.439   0.439   0.5
S87     S     0.2164   0.2164   0.8205
Ce88     Ce     0.3292   0.2428   0.7831
Ce89     Ce     0.2428   0.3292   0.7831
S90     S     0.2836   0.2836   0.6795
Ce91     Ce     0.2572   0.1708   0.7169
Ce92     Ce     0.1708   0.2572   0.7169
V93     V     0.1472   0.1472   0.0
Er94     Er     0.2218   0.2218   0.9401
Er95     Er     0.2218   0.2218   0.0599
Ti96     Ti     0.061   0.061   0.0
S97     S     0.2164   0.2164   0.1795
Ce98     Ce     0.2428   0.3292   0.2169
Ce99     Ce     0.3292   0.2428   0.2169
Ce100     Ce     0.1708   0.2572   0.2831
Ce101     Ce     0.2572   0.1708   0.2831
S102     S     0.2836   0.2836   0.3205
V103     V     0.3528   0.6472   0.5
Er104     Er     0.2782   0.7218   0.5599
Er105     Er     0.2782   0.7218   0.4401
Ti106     Ti     0.439   0.561   0.5
S107     S     0.2164   0.7836   0.8205
Ce108     Ce     0.3292   0.7572   0.7831
Ce109     Ce     0.2428   0.6708   0.7831
S110     S     0.2836   0.7164   0.6795
Ce111     Ce     0.1708   0.7428   0.7169
Ce112     Ce     0.2572   0.8292   0.7169
V113     V     0.1472   0.8528   0.0
Er114     Er     0.2218   0.7782   0.9401
Er115     Er     0.2218   0.7782   0.0599
Ti116     Ti     0.061   0.939   0.0
S117     S     0.2164   0.7836   0.1795
Ce118     Ce     0.3292   0.7572   0.2169
Ce119     Ce     0.2428   0.6708   0.2169
S120     S     0.2836   0.7164   0.3205
Ce121     Ce     0.1708   0.7428   0.2831
Ce122     Ce     0.2572   0.8292   0.2831
He123     He     0.0   0.2526   0.44
H124     H     0.0611   0.2556   0.3361
H125     H     0.9389   0.2556   0.3361
He126     He     0.0   0.2526   0.56
H127     H     0.0611   0.2556   0.6639
H128     H     0.9389   0.2556   0.6639
loop_
_geom_bond_atom_site_label_1
_geom_bond_atom_site_label_2
_geom_bond_distance
_geom_bond_site_symmetry_2
_ccdc_geom_bond_type
He1     H2    10.004   .     S
He1     H3    10.004   .     S
He1     He4    10.013   1_556     S
H2     H3    10.009   .     S
H2     Ce109    10.016   .     S
H3     Ce89    10.016   .     S
He4     H5    10.004   .     S
He4     H6    10.004   .     S
He4     He1    10.013   1_554     S
H5     H6    10.009   .     S
H5     Ce98    10.016   .     S
H6     Ce119    10.016   .     S
He7     H8    10.004   .     S
He7     H9    10.004   .     S
He7     He10    10.013   1_556     S
H8     H9    10.009   .     S
H8     Ce48    10.016   .     S
H9     Ce108    10.016   .     S
He10     H11    10.004   .     S
He10     H12    10.004   .     S
He10     He7    10.013   1_554     S
H11     H12    10.009   .     S
H11     Ce118    10.016   .     S
H12     Ce59    10.016   .     S
He13     H14    10.004   .     S
He13     H15    10.004   .     S
He13     He16    10.013   1_556     S
H14     H15    10.009   .     S
H14     Ce68    10.016   .     S
H15     Ce49    10.016   .     S
He16     H17    10.004   .     S
He16     H18    10.004   .     S
He16     He13    10.013   1_554     S
H17     H18    10.009   .     S
H17     Ce58    10.016   .     S
H18     Ce78    10.016   .     S
He19     H20    10.004   .     S
He19     H21    10.004   .     S
He19     He22    10.013   1_556     S
H20     H21    10.009   .     S
H20     Ce88    10.016   .     S
H21     Ce69    10.016   .     S
He22     H23    10.004   .     S
He22     H24    10.004   .     S
He22     He19    10.013   1_554     S
H23     H24    10.009   .     S
H23     Ce79    10.016   .     S
H24     Ce99    10.016   .     S
He25     H27    10.004   1_545     S
He25     H26    10.004   .     S
He25     He28    10.013   .     S
H26     H27    10.009   1_545     S
H26     Ce101    10.016   .     S
H27     He25    10.004   1_565     S
H27     H26    10.009   1_565     S
H27     Ce122    10.016   .     S
He28     H30    10.004   1_545     S
He28     H29    10.004   .     S
H29     H30    10.009   1_545     S
H29     Ce91    10.016   .     S
H30     He28    10.004   1_565     S
H30     H29    10.009   1_565     S
H30     Ce112    10.016   .     S
He31     H33    10.004   1_455     S
He31     H32    10.004   .     S
He31     He34    10.013   .     S
H32     H33    10.009   1_455     S
H32     Ce121    10.016   .     S
H33     He31    10.004   1_655     S
H33     H32    10.009   1_655     S
H33     Ce61    10.016   .     S
He34     H36    10.004   1_455     S
He34     H35    10.004   .     S
H35     H36    10.009   1_455     S
H35     Ce111    10.016   .     S
H36     He34    10.004   1_655     S
H36     H35    10.009   1_655     S
H36     Ce52    10.016   .     S
He37     H39    10.004   1_545     S
He37     H38    10.004   .     S
He37     He40    10.013   .     S
H38     H39    10.009   1_545     S
H38     Ce81    10.016   .     S
H39     He37    10.004   1_565     S
H39     H38    10.009   1_565     S
H39     Ce62    10.016   .     S
He40     H42    10.004   1_545     S
He40     H41    10.004   .     S
H41     H42    10.009   1_545     S
H41     Ce71    10.016   .     S
H42     He40    10.004   1_565     S
H42     H41    10.009   1_565     S
H42     Ce51    10.016   .     S
V43     Er45    9.988   .     S
V43     Er44    9.988   .     S
V43     Ti46    9.99   .     S
Er44     Er45    9.99   .     S
Er44     S50    9.99   .     S
Er45     S60    9.99   .     S
Ti46     Ti66    9.992   .     S
Ti46     Ti106    9.992   .     S
S47     Ce48    9.99   .     S
S47     Ce49    9.99   .     S
S47     Ce52    9.991   .     S
S47     Ce51    9.991   .     S
S47     Er54    9.99   .     S
Ce48     Ce49    10.009   .     S
Ce48     S50    9.991   .     S
Ce48     Ce51    10.012   .     S
Ce49     S50    9.991   .     S
Ce49     Ce52    10.012   .     S
S50     Ce51    9.99   .     S
S50     Ce52    9.99   .     S
Ce51     Ce52    10.009   .     S
V53     Er55    9.988   .     S
V53     Er54    9.988   1_554     S
V53     Ti56    9.99   .     S
Er54     V53    9.988   1_556     S
Er54     Er55    9.99   1_556     S
Er55     Er54    9.99   1_554     S
Er55     S57    9.99   .     S
Ti56     Ti76    9.992   1_565     S
Ti56     Ti116    9.992   1_655     S
S57     Ce58    9.99   .     S
S57     Ce59    9.99   .     S
S57     Ce62    9.991   .     S
S57     Ce61    9.991   .     S
Ce58     Ce59    10.009   .     S
Ce58     S60    9.991   .     S
Ce58     Ce61    10.012   .     S
Ce59     S60    9.991   .     S
Ce59     Ce62    10.012   .     S
S60     Ce61    9.99   .     S
S60     Ce62    9.99   .     S
Ce61     Ce62    10.009   .     S
V63     Er65    9.988   .     S
V63     Er64    9.988   .     S
V63     Ti66    9.99   .     S
Er64     Er65    9.99   .     S
Er64     S70    9.99   .     S
Er65     S80    9.99   .     S
Ti66     Ti86    9.992   .     S
S67     Ce69    9.99   .     S
S67     Ce68    9.99   .     S
S67     Ce72    9.991   .     S
S67     Ce71    9.991   .     S
S67     Er74    9.99   .     S
Ce68     Ce69    10.009   .     S
Ce68     S70    9.991   .     S
Ce68     Ce72    10.012   .     S
Ce69     S70    9.991   .     S
Ce69     Ce71    10.012   .     S
S70     Ce71    9.99   .     S
S70     Ce72    9.99   .     S
Ce71     Ce72    10.009   .     S
Ce72     H128    10.016   .     S
V73     Er75    9.988   .     S
V73     Er74    9.988   1_554     S
V73     Ti76    9.99   .     S
Er74     V73    9.988   1_556     S
Er74     Er75    9.99   1_556     S
Er75     Er74    9.99   1_554     S
Er75     S77    9.99   .     S
Ti76     Ti56    9.992   1_545     S
Ti76     Ti96    9.992   1_655     S
S77     Ce79    9.99   .     S
S77     Ce78    9.99   .     S
S77     Ce82    9.991   .     S
S77     Ce81    9.991   .     S
Ce78     Ce79    10.009   .     S
Ce78     S80    9.991   .     S
Ce78     Ce82    10.012   .     S
Ce79     S80    9.991   .     S
Ce79     Ce81    10.012   .     S
S80     Ce81    9.99   .     S
S80     Ce82    9.99   .     S
Ce81     Ce82    10.009   .     S
Ce82     H125    10.016   .     S
V83     Er85    9.988   .     S
V83     Er84    9.988   .     S
V83     Ti86    9.99   .     S
Er84     Er85    9.99   .     S
Er84     S90    9.99   .     S
Er85     S102    9.99   .     S
Ti86     Ti106    9.992   .     S
S87     Ce92    9.991   .     S
S87     Ce88    9.99   .     S
S87     Ce89    9.99   .     S
S87     Ce91    9.991   .     S
S87     Er94    9.99   .     S
Ce88     Ce89    10.009   .     S
Ce88     S90    9.991   .     S
Ce88     Ce91    10.012   .     S
Ce89     S90    9.991   .     S
Ce89     Ce92    10.012   .     S
S90     Ce91    9.99   .     S
S90     Ce92    9.99   .     S
Ce91     Ce92    10.009   .     S
Ce92     H127    10.016   .     S
V93     Er95    9.988   .     S
V93     Er94    9.988   1_554     S
V93     Ti96    9.99   .     S
Er94     V93    9.988   1_556     S
Er94     Er95    9.99   1_556     S
Er95     Er94    9.99   1_554     S
Er95     S97    9.99   .     S
Ti96     Ti76    9.992   1_455     S
Ti96     Ti116    9.992   1_545     S
S97     Ce98    9.99   .     S
S97     Ce99    9.99   .     S
S97     Ce101    9.991   .     S
S97     Ce100    9.991   .     S
Ce98     Ce99    10.009   .     S
Ce98     S102    9.991   .     S
Ce98     Ce100    10.012   .     S
Ce99     S102    9.991   .     S
Ce99     Ce101    10.012   .     S
Ce100     S102    9.99   .     S
Ce100     Ce101    10.009   .     S
Ce100     H124    10.016   .     S
Ce101     S102    9.99   .     S
V103     Er105    9.988   .     S
V103     Er104    9.988   .     S
V103     Ti106    9.99   .     S
Er104     Er105    9.99   .     S
Er104     S110    9.99   .     S
Er105     S120    9.99   .     S
S107     Ce109    9.99   .     S
S107     Ce108    9.99   .     S
S107     Ce112    9.991   .     S
S107     Ce111    9.991   .     S
S107     Er114    9.99   .     S
Ce108     Ce109    10.009   .     S
Ce108     S110    9.991   .     S
Ce108     Ce112    10.012   .     S
Ce109     S110    9.991   .     S
Ce109     Ce111    10.012   .     S
S110     Ce111    9.99   .     S
S110     Ce112    9.99   .     S
Ce111     Ce112    10.009   .     S
V113     Er115    9.988   .     S
V113     Er114    9.988   1_554     S
V113     Ti116    9.99   .     S
Er114     V113    9.988   1_556     S
Er114     Er115    9.99   1_556     S
Er115     Er114    9.99   1_554     S
Er115     S117    9.99   .     S
Ti116     Ti56    9.992   1_455     S
Ti116     Ti96    9.992   1_565     S
S117     Ce119    9.99   .     S
S117     Ce118    9.99   .     S
S117     Ce122    9.991   .     S
S117     Ce121    9.991   .     S
Ce118     Ce119    10.009   .     S
Ce118     S120    9.991   .     S
Ce118     Ce122    10.012   .     S
Ce119     S120    9.991   .     S
Ce119     Ce121    10.012   .     S
S120     Ce121    9.99   .     S
S120     Ce122    9.99   .     S
Ce121     Ce122    10.009   .     S
He123     H125    10.004   1_455     S
He123     H124    10.004   .     S
He123     He126    10.013   .     S
H124     H125    10.009   1_455     S
H125     He123    10.004   1_655     S
H125     H124    10.009   1_655     S
He126     H128    10.004   1_455     S
He126     H127    10.004   .     S
H127     H128    10.009   1_455     S
H128     He126    10.004   1_655     S
H128     H127    10.009   1_655     S
