data_xly
_audit_creation_date              2020-02-02
_audit_creation_method            'Pymatgen'
_symmetry_space_group_name_H-M    'P1'
_symmetry_Int_Tables_number       1
loop_
_symmetry_equiv_pos_as_xyz
  x,y,z
_cell_length_a                    36.0299
_cell_length_b                    36.0299
_cell_length_c                    18.6877
_cell_angle_alpha                 90.0
_cell_angle_beta                 90.0
_cell_angle_gamma                 120.0
loop_
_atom_site_label
_atom_site_type_symbol
_atom_site_fract_x
_atom_site_fract_y
_atom_site_fract_z
Er1     Er     0.5   0.75   0.2326
Er2     Er     0.5   0.75   0.7674
Er3     Er     0.25   0.75   0.7674
Er4     Er     0.25   0.75   0.2326
Er5     Er     0.25   0.5   0.2326
Er6     Er     0.25   0.5   0.7674
Er7     Er     0.75   0.25   0.7674
Er8     Er     0.75   0.25   0.2326
Er9     Er     0.75   0.5   0.2326
Er10     Er     0.75   0.5   0.7674
Er11     Er     0.5   0.25   0.7674
Er12     Er     0.5   0.25   0.2326
V13     V     0.5   0.5   0.0
V14     V     0.0   0.5   0.0
V15     V     0.5   0.0   0.0
loop_
_geom_bond_atom_site_label_1
_geom_bond_atom_site_label_2
_geom_bond_distance
_geom_bond_site_symmetry_2
_ccdc_geom_bond_type
Er1     Er2    9.995   .     S
Er1     V15    10.001   1_565     S
Er1     V13    10.001   .     S
Er2     V15    10.001   1_566     S
Er2     V13    10.001   1_556     S
Er3     V15    10.001   1_566     S
Er3     Er4    9.995   .     S
Er3     V14    10.001   1_556     S
Er4     V15    10.001   1_565     S
Er4     V14    10.001   .     S
Er5     V14    10.001   .     S
Er5     V13    10.001   .     S
Er5     Er6    9.995   .     S
Er6     V14    10.001   1_556     S
Er6     V13    10.001   1_556     S
Er7     V14    10.001   1_656     S
Er7     Er8    9.995   .     S
Er7     V15    10.001   1_556     S
Er8     V14    10.001   1_655     S
Er8     V15    10.001   .     S
Er9     V14    10.001   1_655     S
Er9     Er10    9.995   .     S
Er9     V13    10.001   .     S
Er10     V14    10.001   1_656     S
Er10     V13    10.001   1_556     S
Er11     V15    10.001   1_556     S
Er11     V13    10.001   1_556     S
Er11     Er12    9.995   .     S
Er12     V15    10.001   .     S
Er12     V13    10.001   .     S
V13     Er6    10.001   1_554     S
V13     Er2    10.001   1_554     S
V13     Er10    10.001   1_554     S
V13     Er11    10.001   1_554     S
V14     Er3    10.001   1_554     S
V14     Er6    10.001   1_554     S
V14     Er7    10.001   1_454     S
V14     Er8    10.001   1_455     S
V14     Er9    10.001   1_455     S
V14     Er10    10.001   1_454     S
V15     Er2    10.001   1_544     S
V15     Er1    10.001   1_545     S
V15     Er4    10.001   1_545     S
V15     Er3    10.001   1_544     S
V15     Er11    10.001   1_554     S
V15     Er7    10.001   1_554     S
