data_xlya
_audit_creation_date              2020-02-02
_audit_creation_method            'Pymatgen'
_symmetry_space_group_name_H-M    'P1'
_symmetry_Int_Tables_number       1
loop_
_symmetry_equiv_pos_as_xyz
  x,y,z
_cell_length_a                    83.7509
_cell_length_b                    83.7509
_cell_length_c                    45.5927
_cell_angle_alpha                 90.0
_cell_angle_beta                 90.0
_cell_angle_gamma                 120.0
loop_
_atom_site_label
_atom_site_type_symbol
_atom_site_fract_x
_atom_site_fract_y
_atom_site_fract_z
Er1     Er     0.7625   0.2375   0.8903
V2     V     0.7026   0.178   0.7004
V3     V     0.822   0.2974   0.7004
Er4     Er     0.7625   0.2375   0.1097
V5     V     0.7026   0.178   0.2996
V6     V     0.822   0.2974   0.2996
Ti7     Ti     0.931   0.5252   0.3904
Ti8     Ti     0.931   0.5252   0.6096
Ti9     Ti     0.931   0.4058   0.3904
Ti10     Ti     0.931   0.4058   0.6096
Ti11     Ti     0.069   0.4748   0.3904
Ti12     Ti     0.069   0.4748   0.6096
Ti13     Ti     0.069   0.5942   0.3904
Ti14     Ti     0.069   0.5942   0.6096
Er15     Er     0.7625   0.525   0.8903
V16     V     0.822   0.5247   0.7004
V17     V     0.7026   0.5247   0.7004
Er18     Er     0.7625   0.525   0.1097
V19     V     0.822   0.5247   0.2996
V20     V     0.7026   0.5247   0.2996
Er21     Er     0.2375   0.475   0.8903
V22     V     0.178   0.4753   0.7004
V23     V     0.2974   0.4753   0.7004
Er24     Er     0.2375   0.475   0.1097
V25     V     0.178   0.4753   0.2996
V26     V     0.2974   0.4753   0.2996
Er27     Er     0.475   0.2375   0.8903
V28     V     0.4753   0.178   0.7004
V29     V     0.4753   0.2974   0.7004
Er30     Er     0.475   0.2375   0.1097
V31     V     0.4753   0.178   0.2996
V32     V     0.4753   0.2974   0.2996
Ti33     Ti     0.4748   0.4058   0.3904
Ti34     Ti     0.4748   0.4058   0.6096
Ti35     Ti     0.5942   0.5252   0.6096
Ti36     Ti     0.5942   0.5252   0.3904
Ti37     Ti     0.4058   0.4748   0.3904
Ti38     Ti     0.4058   0.4748   0.6096
Ti39     Ti     0.5252   0.5942   0.3904
Ti40     Ti     0.5252   0.5942   0.6096
Er41     Er     0.2375   0.7625   0.8903
V42     V     0.178   0.7026   0.7004
V43     V     0.2974   0.822   0.7004
Er44     Er     0.2375   0.7625   0.1097
V45     V     0.178   0.7026   0.2996
V46     V     0.2974   0.822   0.2996
Er47     Er     0.525   0.7625   0.8903
V48     V     0.5247   0.7026   0.7004
V49     V     0.5247   0.822   0.7004
Er50     Er     0.525   0.7625   0.1097
V51     V     0.5247   0.7026   0.2996
V52     V     0.5247   0.822   0.2996
Ti53     Ti     0.4748   0.069   0.6096
Ti54     Ti     0.4748   0.069   0.3904
Ti55     Ti     0.5942   0.069   0.3904
Ti56     Ti     0.5942   0.069   0.6096
Ti57     Ti     0.5252   0.931   0.3904
Ti58     Ti     0.5252   0.931   0.6096
Ti59     Ti     0.4058   0.931   0.6096
Ti60     Ti     0.4058   0.931   0.3904
loop_
_geom_bond_atom_site_label_1
_geom_bond_atom_site_label_2
_geom_bond_distance
_geom_bond_site_symmetry_2
_ccdc_geom_bond_type
Er1     V2    9.998   .     S
Er1     V3    9.998   .     S
Er1     Er4    10.002   1_556     S
V2     V3    10.0   .     S
V2     Ti56    10.004   .     S
V3     Ti10    10.004   .     S
Er4     V5    9.998   .     S
Er4     V6    9.998   .     S
Er4     Er1    10.002   1_554     S
V5     V6    10.0   .     S
V5     Ti55    10.004   .     S
V6     Ti9    10.004   .     S
Ti7     Ti8    9.996   .     S
Ti7     Ti9    9.997   .     S
Ti7     Ti13    10.002   1_655     S
Ti7     V19    10.004   .     S
Ti8     Ti10    9.997   .     S
Ti8     Ti14    10.002   1_655     S
Ti8     V16    10.004   .     S
Ti9     Ti10    9.996   .     S
Ti9     Ti11    10.002   1_655     S
Ti10     Ti12    10.002   1_655     S
Ti11     Ti12    9.996   .     S
Ti11     Ti13    9.997   .     S
Ti11     Ti9    10.002   1_455     S
Ti11     V25    10.004   .     S
Ti12     Ti14    9.997   .     S
Ti12     Ti10    10.002   1_455     S
Ti12     V22    10.004   .     S
Ti13     Ti14    9.996   .     S
Ti13     Ti7    10.002   1_455     S
Ti13     V45    10.004   .     S
Ti14     Ti8    10.002   1_455     S
Ti14     V42    10.004   .     S
Er15     V17    9.998   .     S
Er15     V16    9.998   .     S
Er15     Er18    10.002   1_556     S
V16     V17    10.0   .     S
V17     Ti35    10.004   .     S
Er18     V20    9.998   .     S
Er18     V19    9.998   .     S
Er18     Er15    10.002   1_554     S
V19     V20    10.0   .     S
V20     Ti36    10.004   .     S
Er21     V23    9.998   .     S
Er21     V22    9.998   .     S
Er21     Er24    10.002   1_556     S
V22     V23    10.0   .     S
V23     Ti38    10.004   .     S
Er24     V26    9.998   .     S
Er24     V25    9.998   .     S
Er24     Er21    10.002   1_554     S
V25     V26    10.0   .     S
V26     Ti37    10.004   .     S
Er27     V29    9.998   .     S
Er27     V28    9.998   .     S
Er27     Er30    10.002   1_556     S
V28     V29    10.0   .     S
V28     Ti53    10.004   .     S
V29     Ti34    10.004   .     S
Er30     V32    9.998   .     S
Er30     V31    9.998   .     S
Er30     Er27    10.002   1_554     S
V31     V32    10.0   .     S
V31     Ti54    10.004   .     S
V32     Ti33    10.004   .     S
Ti33     Ti34    9.996   .     S
Ti33     Ti36    9.997   .     S
Ti33     Ti37    10.002   .     S
Ti34     Ti35    9.997   .     S
Ti34     Ti38    10.002   .     S
Ti35     Ti36    9.996   .     S
Ti35     Ti40    10.002   .     S
Ti36     Ti39    10.002   .     S
Ti37     Ti38    9.996   .     S
Ti37     Ti39    9.997   .     S
Ti38     Ti40    9.997   .     S
Ti39     Ti40    9.996   .     S
Ti39     V51    10.004   .     S
Ti40     V48    10.004   .     S
Er41     V42    9.998   .     S
Er41     V43    9.998   .     S
Er41     Er44    10.002   1_556     S
V42     V43    10.0   .     S
V43     Ti59    10.004   .     S
Er44     V45    9.998   .     S
Er44     V46    9.998   .     S
Er44     Er41    10.002   1_554     S
V45     V46    10.0   .     S
V46     Ti60    10.004   .     S
Er47     V48    9.998   .     S
Er47     V49    9.998   .     S
Er47     Er50    10.002   1_556     S
V48     V49    10.0   .     S
V49     Ti58    10.004   .     S
Er50     V51    9.998   .     S
Er50     V52    9.998   .     S
Er50     Er47    10.002   1_554     S
V51     V52    10.0   .     S
V52     Ti57    10.004   .     S
Ti53     Ti54    9.996   .     S
Ti53     Ti56    9.997   .     S
Ti53     Ti59    10.002   1_545     S
Ti54     Ti55    9.997   .     S
Ti54     Ti60    10.002   1_545     S
Ti55     Ti56    9.996   .     S
Ti55     Ti57    10.002   1_545     S
Ti56     Ti58    10.002   1_545     S
Ti57     Ti58    9.996   .     S
Ti57     Ti60    9.997   .     S
Ti57     Ti55    10.002   1_565     S
Ti58     Ti59    9.997   .     S
Ti58     Ti56    10.002   1_565     S
Ti59     Ti60    9.996   .     S
Ti59     Ti53    10.002   1_565     S
Ti60     Ti54    10.002   1_565     S
