data_xlz
_audit_creation_date              2020-02-02
_audit_creation_method            'Pymatgen'
_symmetry_space_group_name_H-M    'P1'
_symmetry_Int_Tables_number       1
loop_
_symmetry_equiv_pos_as_xyz
  x,y,z
_cell_length_a                    49.5005
_cell_length_b                    49.5005
_cell_length_c                    13.5062
_cell_angle_alpha                 90.0
_cell_angle_beta                 90.0
_cell_angle_gamma                 120.0
loop_
_atom_site_label
_atom_site_type_symbol
_atom_site_fract_x
_atom_site_fract_y
_atom_site_fract_z
V1     V     0.5013   0.8517   0.0
V2     V     0.3503   0.8517   0.0
Er3     Er     0.5   0.0   0.5
V4     V     0.4987   0.1483   0.0
V5     V     0.6497   0.1483   0.0
Er6     Er     0.0   0.5   0.5
V7     V     0.1483   0.4987   0.0
V8     V     0.8517   0.3503   0.0
V9     V     0.8517   0.5013   0.0
V10     V     0.1483   0.6497   0.0
Er11     Er     0.5   0.5   0.5
V12     V     0.4987   0.3503   0.0
V13     V     0.3503   0.4987   0.0
V14     V     0.6497   0.5013   0.0
V15     V     0.5013   0.6497   0.0
loop_
_geom_bond_atom_site_label_1
_geom_bond_atom_site_label_2
_geom_bond_distance
_geom_bond_site_symmetry_2
_ccdc_geom_bond_type
V1     Er3    10.0   1_564     S
V1     Er3    10.0   1_565     S
V1     V15    10.0   .     S
V2     Er3    10.0   1_564     S
V2     Er3    10.0   1_565     S
V2     V10    10.0   .     S
Er3     V1    10.0   1_546     S
Er3     V2    10.0   1_546     S
Er3     V2    10.0   1_545     S
Er3     V1    10.0   1_545     S
Er3     V4    10.0   1_556     S
Er3     V5    10.0   1_556     S
Er3     V5    10.0   .     S
Er3     V4    10.0   .     S
V4     Er3    10.0   1_554     S
V4     V12    10.0   .     S
V5     Er3    10.0   1_554     S
V5     V8    10.0   .     S
Er6     V10    10.0   1_556     S
Er6     V7    10.0   1_556     S
Er6     V8    10.0   1_456     S
Er6     V9    10.0   1_456     S
Er6     V9    10.0   1_455     S
Er6     V8    10.0   1_455     S
Er6     V7    10.0   .     S
Er6     V10    10.0   .     S
V7     Er6    10.0   1_554     S
V7     V13    10.0   .     S
V8     Er6    10.0   1_654     S
V8     Er6    10.0   1_655     S
V9     Er6    10.0   1_654     S
V9     Er6    10.0   1_655     S
V9     V14    10.0   .     S
V10     Er6    10.0   1_554     S
Er11     V12    10.0   .     S
Er11     V14    10.0   .     S
Er11     V14    10.0   1_556     S
Er11     V12    10.0   1_556     S
Er11     V15    10.0   .     S
Er11     V13    10.0   .     S
Er11     V13    10.0   1_556     S
Er11     V15    10.0   1_556     S
V12     Er11    10.0   1_554     S
V13     Er11    10.0   1_554     S
V14     Er11    10.0   1_554     S
V15     Er11    10.0   1_554     S
