data_yac
_audit_creation_date              2020-02-02
_audit_creation_method            'Pymatgen'
_symmetry_space_group_name_H-M    'P1'
_symmetry_Int_Tables_number       1
loop_
_symmetry_equiv_pos_as_xyz
  x,y,z
_cell_length_a                    34.6424
_cell_length_b                    34.6424
_cell_length_c                    113.1377
_cell_angle_alpha                 90.0
_cell_angle_beta                 90.0
_cell_angle_gamma                 120.0
loop_
_atom_site_label
_atom_site_type_symbol
_atom_site_fract_x
_atom_site_fract_y
_atom_site_fract_z
He1     He     0.3333   0.6667   0.75
S2     S     0.6667   0.3333   0.0
S3     S     0.6667   0.3333   0.5
S4     S     0.3333   0.6667   0.5
S5     S     0.3333   0.6667   1.0
Ti6     Ti     0.8335   0.6669   0.25
Ti7     Ti     0.3331   0.1665   0.25
Ti8     Ti     0.8335   0.1665   0.25
Li9     Li     0.0   0.0   0.25
Ce10     Ce     0.5562   0.4438   0.5832
Ce11     Ce     0.4438   0.5562   0.4168
Er12     Er     0.5   0.5   0.5
H13     H     0.7769   0.8885   0.6666
V14     V     0.8332   0.1668   0.6251
V15     V     0.8332   0.6664   0.6251
H16     H     0.1115   0.8885   0.6666
H17     H     0.1115   0.2231   0.6666
V18     V     0.3336   0.1668   0.6251
Ce19     Ce     0.5562   0.1123   0.5832
Ce20     Ce     0.4438   0.8877   0.4168
Er21     Er     0.5   0.0   0.5
V22     V     0.6664   0.8332   0.3749
H23     H     0.8885   0.7769   0.3334
V24     V     0.1668   0.8332   0.3749
H25     H     0.8885   0.1115   0.3334
V26     V     0.1668   0.3336   0.3749
H27     H     0.2231   0.1115   0.3334
Ce28     Ce     0.8877   0.4438   0.5832
Ce29     Ce     0.1123   0.5562   0.4168
Er30     Er     0.0   0.5   0.5
Ti31     Ti     0.1665   0.3331   0.75
Ti32     Ti     0.6669   0.8335   0.75
Ti33     Ti     0.1665   0.8335   0.75
Li34     Li     0.0   0.0   0.75
Ce35     Ce     0.4438   0.5562   0.0832
Ce36     Ce     0.5562   0.4438   0.9168
Er37     Er     0.5   0.5   0.0
V38     V     0.8332   0.6664   0.8749
V39     V     0.8332   0.1668   0.8749
H40     H     0.7769   0.8885   0.8334
H41     H     0.1115   0.8885   0.8334
V42     V     0.3336   0.1668   0.8749
H43     H     0.1115   0.2231   0.8334
Ce44     Ce     0.4438   0.8877   0.0832
Ce45     Ce     0.5562   0.1123   0.9168
Er46     Er     0.5   0.0   0.0
V47     V     0.1668   0.8332   0.1251
H48     H     0.8885   0.1115   0.1666
V49     V     0.1668   0.3336   0.1251
H50     H     0.2231   0.1115   0.1666
V51     V     0.6664   0.8332   0.1251
H52     H     0.8885   0.7769   0.1666
Ce53     Ce     0.1123   0.5562   0.0832
Ce54     Ce     0.8877   0.4438   0.9168
Er55     Er     0.0   0.5   0.0
He56     He     0.6667   0.3333   0.25
loop_
_geom_bond_atom_site_label_1
_geom_bond_atom_site_label_2
_geom_bond_distance
_geom_bond_site_symmetry_2
_ccdc_geom_bond_type
He1     Ti33    10.008   .     S
He1     Ti32    10.008   .     S
He1     Ti31    10.008   .     S
S2     Er37    10.0   .     S
S2     Er46    10.0   .     S
S2     Er55    10.0   1_655     S
S3     Er21    10.0   .     S
S3     Er30    10.0   1_655     S
S3     Er12    10.0   .     S
S4     Er21    10.0   1_565     S
S4     Er30    10.0   .     S
S4     Er12    10.0   .     S
S5     Er37    10.0   1_556     S
S5     Er55    10.0   1_556     S
S5     Er46    10.0   1_566     S
Ti6     Li9    9.992   1_665     S
Ti6     H23    10.0   .     S
Ti6     H52    10.0   .     S
Ti6     He56    10.008   .     S
Ti7     Li9    9.992   .     S
Ti7     H27    10.0   .     S
Ti7     H50    10.0   .     S
Ti7     He56    10.008   .     S
Ti8     Li9    9.992   1_655     S
Ti8     H25    10.0   .     S
Ti8     H48    10.0   .     S
Ti8     He56    10.008   .     S
Li9     Ti6    9.992   1_445     S
Li9     Ti8    9.992   1_455     S
Ce10     Er12    9.999   .     S
Ce10     V15    10.0   .     S
Ce10     V18    10.0   .     S
Ce11     Er12    9.999   .     S
Ce11     V22    10.0   .     S
Ce11     V26    10.0   .     S
H13     Ti32    10.0   .     S
H13     V15    10.0   .     S
H13     V14    10.0   1_565     S
V14     Ce28    10.0   .     S
V14     Ce19    10.0   .     S
V14     H13    10.0   1_545     S
V14     H17    10.0   1_655     S
V15     Ce28    10.0   .     S
V15     H16    10.0   1_655     S
H16     Ti33    10.0   .     S
H16     V15    10.0   1_455     S
H16     V18    10.0   1_565     S
H17     Ti31    10.0   .     S
H17     V14    10.0   1_455     S
H17     V18    10.0   .     S
V18     H16    10.0   1_545     S
V18     Ce19    10.0   .     S
Ce19     Er21    9.999   .     S
Ce20     Er21    9.999   1_565     S
Ce20     V22    10.0   .     S
Ce20     V24    10.0   .     S
Er21     S4    10.0   1_545     S
Er21     Ce20    9.999   1_545     S
V22     H23    10.0   .     S
V22     H25    10.0   1_565     S
H23     V24    10.0   1_655     S
V24     H23    10.0   1_455     S
V24     Ce29    10.0   .     S
V24     H27    10.0   1_565     S
H25     V22    10.0   1_545     S
H25     V26    10.0   1_655     S
V26     Ce29    10.0   .     S
V26     H25    10.0   1_455     S
V26     H27    10.0   .     S
H27     V24    10.0   1_545     S
Ce28     Er30    9.999   1_655     S
Ce29     Er30    9.999   .     S
Er30     S3    10.0   1_455     S
Er30     Ce28    9.999   1_455     S
Ti31     Li34    9.992   .     S
Ti31     H43    10.0   .     S
Ti32     Li34    9.992   1_665     S
Ti32     H40    10.0   .     S
Ti33     Li34    9.992   1_565     S
Ti33     H41    10.0   .     S
Li34     Ti32    9.992   1_445     S
Li34     Ti33    9.992   1_545     S
Ce35     Er37    9.999   .     S
Ce35     V49    10.0   .     S
Ce35     V51    10.0   .     S
Ce36     Er37    9.999   1_556     S
Ce36     V38    10.0   .     S
Ce36     V42    10.0   .     S
Er37     S5    10.0   1_554     S
Er37     Ce36    9.999   1_554     S
V38     Ce54    10.0   .     S
V38     H40    10.0   .     S
V38     H41    10.0   1_655     S
V39     Ce54    10.0   .     S
V39     Ce45    10.0   .     S
V39     H40    10.0   1_545     S
V39     H43    10.0   1_655     S
H40     V39    10.0   1_565     S
H41     V38    10.0   1_455     S
H41     V42    10.0   1_565     S
V42     H41    10.0   1_545     S
V42     Ce45    10.0   .     S
V42     H43    10.0   .     S
H43     V39    10.0   1_455     S
Ce44     Er46    9.999   1_565     S
Ce44     V47    10.0   .     S
Ce44     V51    10.0   .     S
Ce45     Er46    9.999   1_556     S
Er46     S5    10.0   1_544     S
Er46     Ce44    9.999   1_545     S
Er46     Ce45    9.999   1_554     S
V47     Ce53    10.0   .     S
V47     H50    10.0   1_565     S
V47     H52    10.0   1_455     S
H48     V49    10.0   1_655     S
H48     V51    10.0   1_545     S
V49     H48    10.0   1_455     S
V49     Ce53    10.0   .     S
V49     H50    10.0   .     S
H50     V47    10.0   1_545     S
V51     H48    10.0   1_565     S
V51     H52    10.0   .     S
H52     V47    10.0   1_655     S
Ce53     Er55    9.999   .     S
Ce54     Er55    9.999   1_656     S
Er55     S2    10.0   1_455     S
Er55     S5    10.0   1_554     S
Er55     Ce54    9.999   1_454     S
