data_yaoa
_audit_creation_date              2020-02-02
_audit_creation_method            'Pymatgen'
_symmetry_space_group_name_H-M    'P1'
_symmetry_Int_Tables_number       1
loop_
_symmetry_equiv_pos_as_xyz
  x,y,z
_cell_length_a                    78.6926
_cell_length_b                    78.6926
_cell_length_c                    127.9298
_cell_angle_alpha                 90.0
_cell_angle_beta                 90.0
_cell_angle_gamma                 120.0
loop_
_atom_site_label
_atom_site_type_symbol
_atom_site_fract_x
_atom_site_fract_y
_atom_site_fract_z
Ce1     Ce     0.0847   0.0424   0.75
Ce2     Ce     0.9576   0.0424   0.75
Ce3     Ce     0.9576   0.9153   0.75
Ce4     Ce     0.9153   0.9576   0.25
Ce5     Ce     0.0424   0.0847   0.25
Ce6     Ce     0.0424   0.9576   0.25
S7     S     0.9404   0.4067   0.9772
S8     S     0.9404   0.5337   0.9772
S9     S     0.0596   0.5933   0.0228
S10     S     0.0596   0.4663   0.0228
He11     He     0.2315   0.1158   0.75
He12     He     0.8842   0.1158   0.75
He13     He     0.8842   0.7685   0.75
Er14     Er     0.4365   0.1547   0.9414
Er15     Er     0.4365   0.2818   0.9414
Ti16     Ti     0.3893   0.1946   0.8786
Er17     Er     0.8453   0.5635   0.5586
Er18     Er     0.7182   0.5635   0.5586
Ti19     Ti     0.8054   0.6107   0.6214
Er20     Er     0.8453   0.2818   0.9414
Er21     Er     0.7182   0.1547   0.9414
Ti22     Ti     0.8054   0.1946   0.8786
Er23     Er     0.8453   0.5635   0.9414
Er24     Er     0.7182   0.5635   0.9414
Ti25     Ti     0.8054   0.6107   0.8786
Er26     Er     0.8453   0.2818   0.5586
Er27     Er     0.7182   0.1547   0.5586
Ti28     Ti     0.8054   0.1946   0.6214
Li29     Li     0.7824   0.5647   0.75
Li30     Li     0.4353   0.2176   0.75
V31     V     0.582   0.291   0.75
V32     V     0.709   0.418   0.75
V33     V     0.709   0.291   0.75
Li34     Li     0.7824   0.2176   0.75
H35     H     0.3334   0.1667   0.6938
H36     H     0.3334   0.1667   0.8062
H37     H     0.8333   0.6666   0.6938
H38     H     0.8333   0.1667   0.6938
H39     H     0.8333   0.6666   0.8062
H40     H     0.8333   0.1667   0.8062
Er41     Er     0.4365   0.1547   0.5586
Er42     Er     0.4365   0.2818   0.5586
Ti43     Ti     0.3893   0.1946   0.6214
S44     S     0.5933   0.0596   0.9772
S45     S     0.4663   0.0596   0.9772
S46     S     0.5337   0.9404   0.0228
S47     S     0.4067   0.9404   0.0228
S48     S     0.9404   0.4067   0.5228
S49     S     0.9404   0.5337   0.5228
S50     S     0.0596   0.4663   0.4772
S51     S     0.0596   0.5933   0.4772
S52     S     0.5337   0.5933   0.0228
S53     S     0.4067   0.4663   0.0228
S54     S     0.5933   0.5337   0.9772
S55     S     0.4663   0.4067   0.9772
S56     S     0.5337   0.9404   0.4772
S57     S     0.4067   0.9404   0.4772
S58     S     0.4663   0.0596   0.5228
S59     S     0.5933   0.0596   0.5228
S60     S     0.5337   0.5933   0.4772
S61     S     0.4067   0.4663   0.4772
S62     S     0.5933   0.5337   0.5228
S63     S     0.4663   0.4067   0.5228
He64     He     0.1158   0.2315   0.25
He65     He     0.1158   0.8842   0.25
He66     He     0.7685   0.8842   0.25
Er67     Er     0.2818   0.4365   0.0586
Er68     Er     0.1547   0.4365   0.0586
Ti69     Ti     0.1946   0.3893   0.1214
Er70     Er     0.5635   0.8453   0.0586
Er71     Er     0.5635   0.7182   0.0586
Ti72     Ti     0.6107   0.8054   0.1214
Er73     Er     0.2818   0.4365   0.4414
Er74     Er     0.1547   0.4365   0.4414
Ti75     Ti     0.1946   0.3893   0.3786
Er76     Er     0.5635   0.8453   0.4414
Er77     Er     0.5635   0.7182   0.4414
Ti78     Ti     0.6107   0.8054   0.3786
Er79     Er     0.2818   0.8453   0.4414
Er80     Er     0.1547   0.7182   0.4414
Ti81     Ti     0.1946   0.8054   0.3786
Li82     Li     0.2176   0.4353   0.25
Li83     Li     0.5647   0.7824   0.25
V84     V     0.291   0.582   0.25
V85     V     0.291   0.709   0.25
V86     V     0.418   0.709   0.25
Li87     Li     0.2176   0.7824   0.25
H88     H     0.1667   0.3334   0.1938
H89     H     0.1667   0.8333   0.1938
H90     H     0.6666   0.8333   0.1938
H91     H     0.1667   0.8333   0.3062
H92     H     0.1667   0.3334   0.3062
H93     H     0.6666   0.8333   0.3062
Er94     Er     0.2818   0.8453   0.0586
Er95     Er     0.1547   0.7182   0.0586
Ti96     Ti     0.1946   0.8054   0.1214
loop_
_geom_bond_atom_site_label_1
_geom_bond_atom_site_label_2
_geom_bond_distance
_geom_bond_site_symmetry_2
_ccdc_geom_bond_type
Ce1     Ce2    9.999   1_455     S
Ce1     Ce3    9.999   1_445     S
Ce1     He11    10.005   .     S
Ce2     Ce3    9.999   1_545     S
Ce2     Ce1    9.999   1_655     S
Ce2     He12    10.005   .     S
Ce3     Ce2    9.999   1_565     S
Ce3     Ce1    9.999   1_665     S
Ce3     He13    10.005   .     S
Ce4     Ce5    9.999   1_665     S
Ce4     Ce6    9.999   1_655     S
Ce4     He66    10.005   .     S
Ce5     Ce4    9.999   1_445     S
Ce5     Ce6    9.999   1_545     S
Ce5     He64    10.005   .     S
Ce6     Ce5    9.999   1_565     S
Ce6     Ce4    9.999   1_455     S
Ce6     He65    10.005   .     S
S7     S8    9.998   .     S
S7     S10    9.999   1_656     S
S7     Er20    10.003   .     S
S8     S9    9.999   1_656     S
S8     Er23    10.003   .     S
S9     S10    9.998   .     S
S9     S8    9.999   1_454     S
S9     Er95    10.003   .     S
S10     S7    9.999   1_454     S
S10     Er68    10.003   .     S
He11     H35    10.001   .     S
He11     H36    10.001   .     S
He12     H38    10.001   .     S
He12     H40    10.001   .     S
He13     H37    10.001   .     S
He13     H39    10.001   .     S
Er14     Ti16    9.999   .     S
Er14     Er15    9.999   .     S
Er14     S45    10.003   .     S
Er15     Ti16    9.999   .     S
Er15     S55    10.003   .     S
Ti16     H36    10.002   .     S
Er17     Ti19    9.999   .     S
Er17     Er18    9.999   .     S
Er17     S49    10.003   .     S
Er18     Ti19    9.999   .     S
Er18     S62    10.003   .     S
Ti19     H37    10.002   .     S
Er20     Ti22    9.999   .     S
Er20     Er21    9.999   .     S
Er21     Ti22    9.999   .     S
Er21     S44    10.003   .     S
Ti22     H40    10.002   .     S
Er23     Ti25    9.999   .     S
Er23     Er24    9.999   .     S
Er24     Ti25    9.999   .     S
Er24     S54    10.003   .     S
Ti25     H39    10.002   .     S
Er26     Ti28    9.999   .     S
Er26     Er27    9.999   .     S
Er26     S48    10.003   .     S
Er27     Ti28    9.999   .     S
Er27     S59    10.003   .     S
Ti28     H38    10.002   .     S
Li29     H37    9.998   .     S
Li29     H39    9.998   .     S
Li29     V32    9.997   .     S
Li30     H35    9.998   .     S
Li30     H36    9.998   .     S
Li30     V31    9.997   .     S
V31     V32    9.998   .     S
V31     V33    9.998   .     S
V32     V33    9.998   .     S
V33     Li34    9.997   .     S
Li34     H38    9.998   .     S
Li34     H40    9.998   .     S
H35     Ti43    10.002   .     S
Er41     Ti43    9.999   .     S
Er41     Er42    9.999   .     S
Er41     S58    10.003   .     S
Er42     Ti43    9.999   .     S
Er42     S63    10.003   .     S
S44     S45    9.998   .     S
S44     S46    9.999   1_546     S
S45     S47    9.999   1_546     S
S46     S47    9.998   .     S
S46     S44    9.999   1_564     S
S46     Er70    10.003   .     S
S47     S45    9.999   1_564     S
S47     Er94    10.003   .     S
S48     S49    9.998   .     S
S48     S50    9.999   1_655     S
S49     S51    9.999   1_655     S
S50     S51    9.998   .     S
S50     S48    9.999   1_455     S
S50     Er74    10.003   .     S
S51     S49    9.999   1_455     S
S51     Er80    10.003   .     S
S52     S53    9.998   .     S
S52     S54    9.999   1_554     S
S52     Er71    10.003   .     S
S53     S55    9.999   1_554     S
S53     Er67    10.003   .     S
S54     S55    9.998   .     S
S54     S52    9.999   1_556     S
S55     S53    9.999   1_556     S
S56     S57    9.998   .     S
S56     S59    9.999   1_565     S
S56     Er76    10.003   .     S
S57     S58    9.999   1_565     S
S57     Er79    10.003   .     S
S58     S59    9.998   .     S
S58     S57    9.999   1_545     S
S59     S56    9.999   1_545     S
S60     S61    9.998   .     S
S60     S62    9.999   .     S
S60     Er77    10.003   .     S
S61     S63    9.999   .     S
S61     Er73    10.003   .     S
S62     S63    9.998   .     S
He64     H92    10.001   .     S
He64     H88    10.001   .     S
He65     H91    10.001   .     S
He65     H89    10.001   .     S
He66     H93    10.001   .     S
He66     H90    10.001   .     S
Er67     Ti69    9.999   .     S
Er67     Er68    9.999   .     S
Er68     Ti69    9.999   .     S
Ti69     H88    10.002   .     S
Er70     Ti72    9.999   .     S
Er70     Er71    9.999   .     S
Er71     Ti72    9.999   .     S
Ti72     H90    10.002   .     S
Er73     Ti75    9.999   .     S
Er73     Er74    9.999   .     S
Er74     Ti75    9.999   .     S
Ti75     H92    10.002   .     S
Er76     Ti78    9.999   .     S
Er76     Er77    9.999   .     S
Er77     Ti78    9.999   .     S
Ti78     H93    10.002   .     S
Er79     Ti81    9.999   .     S
Er79     Er80    9.999   .     S
Er80     Ti81    9.999   .     S
Ti81     H91    10.002   .     S
Li82     H92    9.998   .     S
Li82     H88    9.998   .     S
Li82     V84    9.997   .     S
Li83     H93    9.998   .     S
Li83     H90    9.998   .     S
Li83     V86    9.997   .     S
V84     V86    9.998   .     S
V84     V85    9.998   .     S
V85     Li87    9.997   .     S
V85     V86    9.998   .     S
Li87     H91    9.998   .     S
Li87     H89    9.998   .     S
H89     Ti96    10.002   .     S
Er94     Ti96    9.999   .     S
Er94     Er95    9.999   .     S
Er95     Ti96    9.999   .     S
