data_yavda
_audit_creation_date              2020-02-02
_audit_creation_method            'Pymatgen'
_symmetry_space_group_name_H-M    'P1'
_symmetry_Int_Tables_number       1
loop_
_symmetry_equiv_pos_as_xyz
  x,y,z
_cell_length_a                    53.4999
_cell_length_b                    53.4999
_cell_length_c                    24.7564
_cell_angle_alpha                 90.0
_cell_angle_beta                 90.0
_cell_angle_gamma                 120.0
loop_
_atom_site_label
_atom_site_type_symbol
_atom_site_fract_x
_atom_site_fract_y
_atom_site_fract_z
V1     V     0.5   0.0   0.202
V2     V     0.5   0.0   0.798
V3     V     0.5   0.5   0.202
V4     V     0.5   0.5   0.798
V5     V     0.0   0.5   0.798
V6     V     0.0   0.5   0.202
Er7     Er     0.0   0.8131   0.5
Er8     Er     0.8131   0.8131   0.5
Ti9     Ti     0.6262   0.6262   0.5
Ti10     Ti     0.0   0.6262   0.5
Er11     Er     0.1869   0.0   0.5
Er12     Er     0.1869   0.1869   0.5
Er13     Er     0.0   0.1869   0.5
Ti14     Ti     0.0   0.3738   0.5
Ti15     Ti     0.3738   0.0   0.5
Er16     Er     0.8131   0.0   0.5
Ti17     Ti     0.6262   0.0   0.5
Ti18     Ti     0.3738   0.3738   0.5
loop_
_geom_bond_atom_site_label_1
_geom_bond_atom_site_label_2
_geom_bond_distance
_geom_bond_site_symmetry_2
_ccdc_geom_bond_type
V1     Ti17    10.0   .     S
V1     Ti15    10.0   .     S
V1     V2    10.0   1_554     S
V2     Ti17    10.0   .     S
V2     Ti15    10.0   .     S
V2     V1    10.0   1_556     S
V3     Ti9    10.0   .     S
V3     Ti18    10.0   .     S
V3     V4    10.0   1_554     S
V4     Ti18    10.0   .     S
V4     Ti9    10.0   .     S
V4     V3    10.0   1_556     S
V5     Ti10    10.0   .     S
V5     Ti14    10.0   .     S
V5     V6    10.0   1_556     S
V6     Ti14    10.0   .     S
V6     Ti10    10.0   .     S
V6     V5    10.0   1_554     S
Er7     Ti10    10.0   .     S
Er7     Er8    10.0   1_455     S
Er7     Er11    10.0   1_565     S
Er8     Ti9    10.0   .     S
Er8     Er7    10.0   1_655     S
Er8     Er16    10.0   1_565     S
Er11     Ti15    10.0   .     S
Er11     Er7    10.0   1_545     S
Er11     Er12    10.0   .     S
Er12     Ti18    10.0   .     S
Er12     Er13    10.0   .     S
Er13     Ti14    10.0   .     S
Er13     Er16    10.0   1_455     S
Er16     Er13    10.0   1_655     S
Er16     Ti17    10.0   .     S
Er16     Er8    10.0   1_545     S
