data_ycs
_audit_creation_date              2020-02-02
_audit_creation_method            'Pymatgen'
_symmetry_space_group_name_H-M    'P1'
_symmetry_Int_Tables_number       1
loop_
_symmetry_equiv_pos_as_xyz
  x,y,z
_cell_length_a                    99.9981
_cell_length_b                    99.9981
_cell_length_c                    99.9981
_cell_angle_alpha                 90.0
_cell_angle_beta                 90.0
_cell_angle_gamma                 90.0
loop_
_atom_site_label
_atom_site_type_symbol
_atom_site_fract_x
_atom_site_fract_y
_atom_site_fract_z
V1     V     0.7069   0.2712   0.6
V2     V     0.7931   0.2288   0.6
Er3     Er     0.7161   0.284   0.5
Er4     Er     0.784   0.216   0.5
V5     V     0.7288   0.2931   0.4
V6     V     0.7712   0.2069   0.4
Ti7     Ti     0.7426   0.2999   0.2999
Ti8     Ti     0.7426   0.2001   0.2001
Ti9     Ti     0.7574   0.2999   0.2001
Ti10     Ti     0.7574   0.2001   0.2999
V11     V     0.7069   0.9   0.2288
V12     V     0.7931   0.9   0.2712
Er13     Er     0.716   0.0   0.2161
Er14     Er     0.784   0.0   0.284
V15     V     0.7288   0.1   0.2069
V16     V     0.7712   0.1   0.2931
V17     V     0.7288   0.4   0.2931
V18     V     0.7712   0.4   0.2069
Er19     Er     0.716   0.5   0.284
Er20     Er     0.784   0.5   0.2161
V21     V     0.7069   0.6   0.2712
V22     V     0.7931   0.6   0.2288
V23     V     0.9   0.7069   0.2288
V24     V     0.9   0.7931   0.2712
Er25     Er     0.0   0.7161   0.216
Er26     Er     0.0   0.784   0.284
V27     V     0.1   0.7288   0.2069
V28     V     0.1   0.7712   0.2931
Ti29     Ti     0.7999   0.7001   0.2426
Ti30     Ti     0.7001   0.7999   0.2426
Ti31     Ti     0.7001   0.7001   0.2574
Ti32     Ti     0.7999   0.7999   0.2574
V33     V     0.6   0.7069   0.2712
V34     V     0.6   0.7931   0.2288
Er35     Er     0.5   0.7161   0.284
Er36     Er     0.5   0.784   0.216
V37     V     0.4   0.7288   0.2931
V38     V     0.4   0.7712   0.2069
Ti39     Ti     0.2999   0.7426   0.2999
Ti40     Ti     0.2001   0.7426   0.2001
Ti41     Ti     0.2001   0.7574   0.2999
Ti42     Ti     0.2999   0.7574   0.2001
V43     V     0.2931   0.7288   0.4
V44     V     0.2069   0.7712   0.4
Er45     Er     0.284   0.716   0.5
Er46     Er     0.216   0.784   0.5
V47     V     0.2712   0.7069   0.6
V48     V     0.2288   0.7931   0.6
V49     V     0.2288   0.7069   0.9
V50     V     0.2712   0.7931   0.9
Er51     Er     0.216   0.716   0.0
Er52     Er     0.284   0.784   0.0
V53     V     0.2069   0.7288   0.1
V54     V     0.2931   0.7712   0.1
V55     V     0.2288   0.9   0.7069
V56     V     0.2712   0.9   0.7931
Er57     Er     0.284   0.0   0.7839
Er58     Er     0.216   0.0   0.716
V59     V     0.2069   0.1   0.7288
V60     V     0.2931   0.1   0.7712
Ti61     Ti     0.2426   0.7999   0.7001
Ti62     Ti     0.2426   0.7001   0.7999
Ti63     Ti     0.2574   0.7001   0.7001
Ti64     Ti     0.2574   0.7999   0.7999
V65     V     0.2712   0.6   0.7069
V66     V     0.2288   0.6   0.7931
Er67     Er     0.216   0.5   0.7839
Er68     Er     0.284   0.5   0.716
V69     V     0.2931   0.4   0.7288
V70     V     0.2069   0.4   0.7712
Ti71     Ti     0.2999   0.2999   0.7426
Ti72     Ti     0.2001   0.2001   0.7426
Ti73     Ti     0.2001   0.2999   0.7574
Ti74     Ti     0.2999   0.2001   0.7574
V75     V     0.7069   0.2288   0.9
V76     V     0.7931   0.2712   0.9
Er77     Er     0.716   0.216   0.0
Er78     Er     0.784   0.284   0.0
V79     V     0.7288   0.2069   0.1
V80     V     0.7712   0.2931   0.1
V81     V     0.4   0.2931   0.7288
V82     V     0.4   0.2069   0.7712
Er83     Er     0.5   0.284   0.716
Er84     Er     0.5   0.216   0.784
V85     V     0.6   0.2712   0.7069
V86     V     0.6   0.2288   0.7931
V87     V     0.9   0.2288   0.7069
V88     V     0.9   0.2712   0.7931
Er89     Er     0.0   0.216   0.716
Er90     Er     0.0   0.284   0.784
V91     V     0.1   0.2069   0.7288
V92     V     0.1   0.2931   0.7712
Ti93     Ti     0.7001   0.2426   0.7999
Ti94     Ti     0.7999   0.2426   0.7001
Ti95     Ti     0.7001   0.2574   0.7001
Ti96     Ti     0.7999   0.2574   0.7999
loop_
_geom_bond_atom_site_label_1
_geom_bond_atom_site_label_2
_geom_bond_distance
_geom_bond_site_symmetry_2
_ccdc_geom_bond_type
V1     V2    9.61   .     S
V1     Er3    10.124   .     S
V1     Ti95    10.125   .     S
V2     Er4    10.124   .     S
V2     Ti94    10.125   .     S
Er3     Er4    9.602   .     S
Er3     V5    10.124   .     S
Er4     V6    10.124   .     S
V5     V6    9.61   .     S
V5     Ti7    10.125   .     S
V6     Ti10    10.125   .     S
Ti7     V17    10.125   .     S
Ti7     Ti9    10.091   .     S
Ti7     Ti10    10.091   .     S
Ti8     V15    10.125   .     S
Ti8     V79    10.125   .     S
Ti8     Ti10    10.091   .     S
Ti8     Ti9    10.091   .     S
Ti9     V18    10.125   .     S
Ti9     V80    10.125   .     S
Ti10     V16    10.125   .     S
V11     V12    9.61   .     S
V11     Er13    10.124   1_565     S
V11     Ti30    10.125   .     S
V12     Er14    10.124   1_565     S
V12     Ti32    10.125   .     S
Er13     Er14    9.602   .     S
Er13     V11    10.124   1_545     S
Er13     V15    10.124   .     S
Er14     V12    10.124   1_545     S
Er14     V16    10.124   .     S
V15     V16    9.61   .     S
V17     V18    9.61   .     S
V17     Er19    10.124   .     S
V18     Er20    10.124   .     S
Er19     Er20    9.602   .     S
Er19     V21    10.124   .     S
Er20     V22    10.124   .     S
V21     V22    9.61   .     S
V21     Ti31    10.125   .     S
V22     Ti29    10.125   .     S
V23     V24    9.61   .     S
V23     Er25    10.124   1_655     S
V23     Ti29    10.125   .     S
V24     Er26    10.124   1_655     S
V24     Ti32    10.125   .     S
Er25     Er26    9.602   .     S
Er25     V23    10.124   1_455     S
Er25     V27    10.124   .     S
Er26     V24    10.124   1_455     S
Er26     V28    10.124   .     S
V27     V28    9.61   .     S
V27     Ti40    10.125   .     S
V28     Ti41    10.125   .     S
Ti29     Ti32    10.091   .     S
Ti29     Ti31    10.091   .     S
Ti30     V34    10.125   .     S
Ti30     Ti32    10.091   .     S
Ti30     Ti31    10.091   .     S
Ti31     V33    10.125   .     S
V33     V34    9.61   .     S
V33     Er35    10.124   .     S
V34     Er36    10.124   .     S
Er35     Er36    9.602   .     S
Er35     V37    10.124   .     S
Er36     V38    10.124   .     S
V37     V38    9.61   .     S
V37     Ti39    10.125   .     S
V38     Ti42    10.125   .     S
Ti39     V43    10.125   .     S
Ti39     Ti41    10.091   .     S
Ti39     Ti42    10.091   .     S
Ti40     V53    10.125   .     S
Ti40     Ti42    10.091   .     S
Ti40     Ti41    10.091   .     S
Ti41     V44    10.125   .     S
Ti42     V54    10.125   .     S
V43     V44    9.61   .     S
V43     Er45    10.124   .     S
V44     Er46    10.124   .     S
Er45     Er46    9.602   .     S
Er45     V47    10.124   .     S
Er46     V48    10.124   .     S
V47     V48    9.61   .     S
V47     Ti63    10.125   .     S
V48     Ti61    10.125   .     S
V49     V50    9.61   .     S
V49     Er51    10.124   1_556     S
V49     Ti62    10.125   .     S
V50     Er52    10.124   1_556     S
V50     Ti64    10.125   .     S
Er51     Er52    9.602   .     S
Er51     V49    10.124   1_554     S
Er51     V53    10.124   .     S
Er52     V50    10.124   1_554     S
Er52     V54    10.124   .     S
V53     V54    9.61   .     S
V55     V56    9.61   .     S
V55     Er58    10.124   1_565     S
V55     Ti61    10.125   .     S
V56     Er57    10.124   1_565     S
V56     Ti64    10.125   .     S
Er57     Er58    9.602   .     S
Er57     V56    10.124   1_545     S
Er57     V60    10.124   .     S
Er58     V55    10.124   1_545     S
Er58     V59    10.124   .     S
V59     V60    9.61   .     S
V59     Ti72    10.125   .     S
V60     Ti74    10.125   .     S
Ti61     Ti64    10.091   .     S
Ti61     Ti63    10.091   .     S
Ti62     V66    10.125   .     S
Ti62     Ti64    10.091   .     S
Ti62     Ti63    10.091   .     S
Ti63     V65    10.125   .     S
V65     V66    9.61   .     S
V65     Er68    10.124   .     S
V66     Er67    10.124   .     S
Er67     Er68    9.602   .     S
Er67     V70    10.124   .     S
Er68     V69    10.124   .     S
V69     V70    9.61   .     S
V69     Ti71    10.125   .     S
V70     Ti73    10.125   .     S
Ti71     V81    10.125   .     S
Ti71     Ti74    10.091   .     S
Ti71     Ti73    10.091   .     S
Ti72     V91    10.125   .     S
Ti72     Ti73    10.091   .     S
Ti72     Ti74    10.091   .     S
Ti73     V92    10.125   .     S
Ti74     V82    10.125   .     S
V75     V76    9.61   .     S
V75     Er77    10.124   1_556     S
V75     Ti93    10.125   .     S
V76     Er78    10.124   1_556     S
V76     Ti96    10.125   .     S
Er77     Er78    9.602   .     S
Er77     V75    10.124   1_554     S
Er77     V79    10.124   .     S
Er78     V76    10.124   1_554     S
Er78     V80    10.124   .     S
V79     V80    9.61   .     S
V81     V82    9.61   .     S
V81     Er83    10.124   .     S
V82     Er84    10.124   .     S
Er83     Er84    9.602   .     S
Er83     V85    10.124   .     S
Er84     V86    10.124   .     S
V85     V86    9.61   .     S
V85     Ti95    10.125   .     S
V86     Ti93    10.125   .     S
V87     V88    9.61   .     S
V87     Er89    10.124   1_655     S
V87     Ti94    10.125   .     S
V88     Er90    10.124   1_655     S
V88     Ti96    10.125   .     S
Er89     Er90    9.602   .     S
Er89     V87    10.124   1_455     S
Er89     V91    10.124   .     S
Er90     V88    10.124   1_455     S
Er90     V92    10.124   .     S
V91     V92    9.61   .     S
Ti93     Ti96    10.091   .     S
Ti93     Ti95    10.091   .     S
Ti94     Ti96    10.091   .     S
Ti94     Ti95    10.091   .     S
