data_yfb
_audit_creation_date              2020-02-02
_audit_creation_method            'Pymatgen'
_symmetry_space_group_name_H-M    'P1'
_symmetry_Int_Tables_number       1
loop_
_symmetry_equiv_pos_as_xyz
  x,y,z
_cell_length_a                    23.8195
_cell_length_b                    23.8195
_cell_length_c                    30.0882
_cell_angle_alpha                 90.0
_cell_angle_beta                 90.0
_cell_angle_gamma                 90.0
loop_
_atom_site_label
_atom_site_type_symbol
_atom_site_fract_x
_atom_site_fract_y
_atom_site_fract_z
V1     V     0.9174   0.1233   0.8825
V2     V     0.9174   0.3767   0.6175
V3     V     0.0826   0.6233   0.3825
V4     V     0.0826   0.8767   0.1175
V5     V     0.4174   0.6233   0.1175
V6     V     0.4174   0.8767   0.3825
V7     V     0.5826   0.1233   0.6175
V8     V     0.5826   0.3767   0.8825
V9     V     0.1233   0.9174   0.6175
V10     V     0.3767   0.9174   0.8825
V11     V     0.6233   0.0826   0.1175
V12     V     0.8767   0.0826   0.3825
V13     V     0.1233   0.5826   0.8825
V14     V     0.3767   0.5826   0.6175
V15     V     0.6233   0.4174   0.3825
V16     V     0.8767   0.4174   0.1175
loop_
_geom_bond_atom_site_label_1
_geom_bond_atom_site_label_2
_geom_bond_distance
_geom_bond_site_symmetry_2
_ccdc_geom_bond_type
V1     V2    10.0   .     S
V1     V4    10.0   1_646     S
V1     V16    10.0   1_556     S
V1     V11    10.0   1_556     S
V1     V8    10.0   .     S
V2     V3    10.0   1_655     S
V2     V12    10.0   .     S
V2     V15    10.0   .     S
V2     V7    10.0   .     S
V3     V4    10.0   .     S
V3     V2    10.0   1_455     S
V3     V14    10.0   .     S
V3     V9    10.0   .     S
V3     V6    10.0   .     S
V4     V1    10.0   1_464     S
V4     V10    10.0   1_554     S
V4     V13    10.0   1_554     S
V4     V5    10.0   .     S
V5     V6    10.0   .     S
V5     V8    10.0   1_554     S
V5     V13    10.0   1_554     S
V5     V10    10.0   1_554     S
V6     V9    10.0   .     S
V6     V14    10.0   .     S
V6     V7    10.0   1_565     S
V7     V8    10.0   .     S
V7     V6    10.0   1_545     S
V7     V12    10.0   .     S
V7     V15    10.0   .     S
V8     V5    10.0   1_556     S
V8     V16    10.0   1_556     S
V8     V11    10.0   1_556     S
V9     V14    10.0   .     S
V9     V10    10.0   .     S
V9     V12    10.0   1_465     S
V10     V4    10.0   1_556     S
V10     V5    10.0   1_556     S
V10     V13    10.0   .     S
V10     V11    10.0   1_566     S
V11     V12    10.0   .     S
V11     V10    10.0   1_544     S
V11     V8    10.0   1_554     S
V11     V1    10.0   1_554     S
V11     V16    10.0   .     S
V12     V9    10.0   1_645     S
V12     V15    10.0   .     S
V13     V4    10.0   1_556     S
V13     V5    10.0   1_556     S
V13     V14    10.0   .     S
V13     V16    10.0   1_456     S
V14     V15    10.0   .     S
V15     V16    10.0   .     S
V16     V1    10.0   1_554     S
V16     V8    10.0   1_554     S
V16     V13    10.0   1_654     S
