data_yfi
_audit_creation_date              2020-02-02
_audit_creation_method            'Pymatgen'
_symmetry_space_group_name_H-M    'P1'
_symmetry_Int_Tables_number       1
loop_
_symmetry_equiv_pos_as_xyz
  x,y,z
_cell_length_a                    32.0899
_cell_length_b                    32.0899
_cell_length_c                    29.1133
_cell_angle_alpha                 90.0
_cell_angle_beta                 90.0
_cell_angle_gamma                 90.0
loop_
_atom_site_label
_atom_site_type_symbol
_atom_site_fract_x
_atom_site_fract_y
_atom_site_fract_z
V1     V     0.819   0.8656   0.8366
V2     V     0.8844   0.569   0.9134
V3     V     0.181   0.6344   0.8366
V4     V     0.1156   0.931   0.9134
V5     V     0.681   0.6344   0.6634
V6     V     0.3844   0.569   0.5866
V7     V     0.6156   0.931   0.5866
V8     V     0.319   0.8656   0.6634
V9     V     0.319   0.3656   0.3366
V10     V     0.3844   0.069   0.4134
V11     V     0.681   0.1344   0.3366
V12     V     0.6156   0.431   0.4134
V13     V     0.819   0.3656   0.1634
V14     V     0.8844   0.069   0.0866
V15     V     0.181   0.1344   0.1634
V16     V     0.1156   0.431   0.0866
loop_
_geom_bond_atom_site_label_1
_geom_bond_atom_site_label_2
_geom_bond_distance
_geom_bond_site_symmetry_2
_ccdc_geom_bond_type
V1     V14    10.0   1_566     S
V1     V4    10.0   1_655     S
V1     V2    10.0   .     S
V1     V5    10.0   .     S
V1     V7    10.0   .     S
V2     V16    10.0   1_656     S
V2     V13    10.0   1_556     S
V2     V3    10.0   1_655     S
V2     V5    10.0   .     S
V3     V16    10.0   1_556     S
V3     V2    10.0   1_455     S
V3     V4    10.0   .     S
V3     V8    10.0   .     S
V3     V6    10.0   .     S
V4     V14    10.0   1_466     S
V4     V15    10.0   1_566     S
V4     V1    10.0   1_455     S
V4     V8    10.0   .     S
V5     V6    10.0   .     S
V5     V7    10.0   .     S
V5     V12    10.0   .     S
V6     V8    10.0   .     S
V6     V12    10.0   .     S
V6     V9    10.0   .     S
V7     V8    10.0   .     S
V7     V10    10.0   1_565     S
V7     V11    10.0   1_565     S
V8     V10    10.0   1_565     S
V9     V10    10.0   .     S
V9     V12    10.0   .     S
V9     V15    10.0   .     S
V9     V16    10.0   .     S
V10     V7    10.0   1_545     S
V10     V8    10.0   1_545     S
V10     V11    10.0   .     S
V10     V15    10.0   .     S
V11     V13    10.0   .     S
V11     V14    10.0   .     S
V11     V7    10.0   1_545     S
V11     V12    10.0   .     S
V12     V13    10.0   .     S
V13     V2    10.0   1_554     S
V13     V14    10.0   .     S
V13     V16    10.0   1_655     S
V14     V4    10.0   1_644     S
V14     V1    10.0   1_544     S
V14     V15    10.0   1_655     S
V15     V4    10.0   1_544     S
V15     V14    10.0   1_455     S
V15     V16    10.0   .     S
V16     V2    10.0   1_454     S
V16     V3    10.0   1_554     S
V16     V13    10.0   1_455     S
