data_yfk
_audit_creation_date              2020-02-02
_audit_creation_method            'Pymatgen'
_symmetry_space_group_name_H-M    'P1'
_symmetry_Int_Tables_number       1
loop_
_symmetry_equiv_pos_as_xyz
  x,y,z
_cell_length_a                    30.7428
_cell_length_b                    30.7428
_cell_length_c                    18.7828
_cell_angle_alpha                 90.0
_cell_angle_beta                 90.0
_cell_angle_gamma                 90.0
loop_
_atom_site_label
_atom_site_type_symbol
_atom_site_fract_x
_atom_site_fract_y
_atom_site_fract_z
V1     V     0.8659   0.408   0.5618
V2     V     0.8659   0.092   0.6882
V3     V     0.908   0.8659   0.3118
V4     V     0.592   0.8659   0.4382
V5     V     0.592   0.6341   0.8118
V6     V     0.908   0.6341   0.9382
V7     V     0.092   0.3659   0.9382
V8     V     0.408   0.3659   0.8118
V9     V     0.1341   0.592   0.5618
V10     V     0.1341   0.908   0.6882
V11     V     0.6341   0.092   0.0618
V12     V     0.6341   0.408   0.1882
V13     V     0.092   0.1341   0.3118
V14     V     0.408   0.1341   0.4382
V15     V     0.3659   0.908   0.0618
V16     V     0.3659   0.592   0.1882
loop_
_geom_bond_atom_site_label_1
_geom_bond_atom_site_label_2
_geom_bond_distance
_geom_bond_site_symmetry_2
_ccdc_geom_bond_type
V1     V2    10.0   .     S
V1     V7    10.0   1_655     S
V1     V6    10.0   .     S
V1     V9    10.0   1_655     S
V1     V12    10.0   .     S
V2     V13    10.0   1_655     S
V2     V3    10.0   1_545     S
V2     V10    10.0   1_645     S
V2     V11    10.0   1_556     S
V3     V4    10.0   .     S
V3     V2    10.0   1_565     S
V3     V10    10.0   1_655     S
V3     V13    10.0   1_665     S
V3     V6    10.0   1_554     S
V4     V11    10.0   1_565     S
V4     V15    10.0   .     S
V4     V14    10.0   1_565     S
V4     V5    10.0   .     S
V5     V6    10.0   .     S
V5     V12    10.0   1_556     S
V5     V16    10.0   1_556     S
V5     V8    10.0   .     S
V6     V9    10.0   1_655     S
V6     V7    10.0   1_655     S
V6     V3    10.0   1_556     S
V7     V1    10.0   1_455     S
V7     V8    10.0   .     S
V7     V9    10.0   .     S
V7     V6    10.0   1_455     S
V7     V13    10.0   1_556     S
V8     V16    10.0   1_556     S
V8     V12    10.0   1_556     S
V8     V14    10.0   .     S
V9     V1    10.0   1_455     S
V9     V10    10.0   .     S
V9     V6    10.0   1_455     S
V9     V16    10.0   .     S
V10     V3    10.0   1_455     S
V10     V13    10.0   1_565     S
V10     V2    10.0   1_465     S
V10     V15    10.0   1_556     S
V11     V4    10.0   1_545     S
V11     V12    10.0   .     S
V11     V14    10.0   .     S
V11     V15    10.0   1_545     S
V11     V2    10.0   1_554     S
V12     V5    10.0   1_554     S
V12     V8    10.0   1_554     S
V12     V16    10.0   .     S
V13     V2    10.0   1_455     S
V13     V14    10.0   .     S
V13     V10    10.0   1_545     S
V13     V3    10.0   1_445     S
V13     V7    10.0   1_554     S
V14     V15    10.0   1_545     S
V14     V4    10.0   1_545     S
V15     V14    10.0   1_565     S
V15     V16    10.0   .     S
V15     V11    10.0   1_565     S
V15     V10    10.0   1_554     S
V16     V8    10.0   1_554     S
V16     V5    10.0   1_554     S
