data_yfn
_audit_creation_date              2020-02-02
_audit_creation_method            'Pymatgen'
_symmetry_space_group_name_H-M    'P1'
_symmetry_Int_Tables_number       1
loop_
_symmetry_equiv_pos_as_xyz
  x,y,z
_cell_length_a                    53.4815
_cell_length_b                    53.4815
_cell_length_c                    17.9948
_cell_angle_alpha                 90.0
_cell_angle_beta                 90.0
_cell_angle_gamma                 90.0
loop_
_atom_site_label
_atom_site_type_symbol
_atom_site_fract_x
_atom_site_fract_y
_atom_site_fract_z
V1     V     0.0408   0.0777   0.0956
V2     V     0.1723   0.2092   0.1544
V3     V     0.0408   0.4223   0.5956
V4     V     0.1723   0.2908   0.6544
V5     V     0.9592   0.4223   0.0956
V6     V     0.8277   0.2908   0.1544
V7     V     0.8277   0.2092   0.6544
V8     V     0.9592   0.0777   0.5956
V9     V     0.8277   0.7092   0.3456
V10     V     0.9592   0.5777   0.4044
V11     V     0.8277   0.7908   0.8456
V12     V     0.9592   0.9223   0.9044
V13     V     0.0408   0.5777   0.9044
V14     V     0.1723   0.7092   0.8456
V15     V     0.1723   0.7908   0.3456
V16     V     0.0408   0.9223   0.4044
V17     V     0.3277   0.2908   0.3456
V18     V     0.4592   0.4223   0.4044
V19     V     0.3277   0.2092   0.8456
V20     V     0.4592   0.0777   0.9044
V21     V     0.5408   0.4223   0.9044
V22     V     0.6723   0.2908   0.8456
V23     V     0.6723   0.2092   0.3456
V24     V     0.5408   0.0777   0.4044
V25     V     0.5408   0.5777   0.5956
V26     V     0.6723   0.7092   0.6544
V27     V     0.3277   0.7092   0.1544
V28     V     0.4592   0.5777   0.0956
V29     V     0.6723   0.7908   0.1544
V30     V     0.5408   0.9223   0.0956
V31     V     0.3277   0.7908   0.6544
V32     V     0.4592   0.9223   0.5956
loop_
_geom_bond_atom_site_label_1
_geom_bond_atom_site_label_2
_geom_bond_distance
_geom_bond_site_symmetry_2
_ccdc_geom_bond_type
V1     V2    10.0   .     S
V1     V8    10.0   1_455     S
V1     V8    10.0   1_454     S
V1     V12    10.0   1_444     S
V1     V16    10.0   1_545     S
V2     V19    10.0   1_554     S
V2     V17    10.0   .     S
V2     V4    10.0   .     S
V2     V4    10.0   1_554     S
V3     V10    10.0   1_455     S
V3     V13    10.0   .     S
V3     V4    10.0   .     S
V3     V5    10.0   1_455     S
V3     V5    10.0   1_456     S
V4     V19    10.0   .     S
V4     V17    10.0   .     S
V4     V2    10.0   1_556     S
V5     V13    10.0   1_654     S
V5     V10    10.0   .     S
V5     V6    10.0   .     S
V5     V3    10.0   1_655     S
V5     V3    10.0   1_654     S
V6     V7    10.0   1_554     S
V6     V7    10.0   .     S
V6     V23    10.0   .     S
V6     V22    10.0   1_554     S
V7     V6    10.0   1_556     S
V7     V8    10.0   .     S
V7     V22    10.0   .     S
V7     V23    10.0   .     S
V8     V1    10.0   1_655     S
V8     V1    10.0   1_656     S
V8     V16    10.0   1_645     S
V8     V12    10.0   1_545     S
V9     V10    10.0   .     S
V9     V11    10.0   .     S
V9     V11    10.0   1_554     S
V9     V29    10.0   .     S
V9     V26    10.0   .     S
V10     V3    10.0   1_655     S
V10     V13    10.0   1_654     S
V10     V13    10.0   1_655     S
V11     V12    10.0   .     S
V11     V9    10.0   1_556     S
V11     V26    10.0   .     S
V11     V29    10.0   1_556     S
V12     V8    10.0   1_565     S
V12     V1    10.0   1_666     S
V12     V16    10.0   1_655     S
V12     V16    10.0   1_656     S
V13     V5    10.0   1_456     S
V13     V10    10.0   1_456     S
V13     V14    10.0   .     S
V13     V10    10.0   1_455     S
V14     V31    10.0   .     S
V14     V27    10.0   1_556     S
V14     V15    10.0   1_556     S
V14     V15    10.0   .     S
V15     V27    10.0   .     S
V15     V31    10.0   .     S
V15     V16    10.0   .     S
V15     V14    10.0   1_554     S
V16     V8    10.0   1_465     S
V16     V1    10.0   1_565     S
V16     V12    10.0   1_455     S
V16     V12    10.0   1_454     S
V17     V18    10.0   .     S
V17     V19    10.0   .     S
V17     V19    10.0   1_554     S
V18     V21    10.0   1_554     S
V18     V21    10.0   .     S
V18     V25    10.0   .     S
V18     V28    10.0   .     S
V19     V2    10.0   1_556     S
V19     V20    10.0   .     S
V19     V17    10.0   1_556     S
V20     V24    10.0   .     S
V20     V24    10.0   1_556     S
V20     V30    10.0   1_546     S
V20     V32    10.0   1_545     S
V21     V22    10.0   .     S
V21     V18    10.0   1_556     S
V21     V25    10.0   .     S
V21     V28    10.0   1_556     S
V22     V6    10.0   1_556     S
V22     V23    10.0   1_556     S
V22     V23    10.0   .     S
V23     V24    10.0   .     S
V23     V22    10.0   1_554     S
V24     V20    10.0   1_554     S
V24     V30    10.0   1_545     S
V24     V32    10.0   1_545     S
V25     V26    10.0   .     S
V25     V28    10.0   .     S
V25     V28    10.0   1_556     S
V26     V29    10.0   .     S
V26     V29    10.0   1_556     S
V27     V14    10.0   1_554     S
V27     V28    10.0   .     S
V27     V31    10.0   1_554     S
V27     V31    10.0   .     S
V28     V21    10.0   1_554     S
V28     V25    10.0   1_554     S
V29     V11    10.0   1_554     S
V29     V30    10.0   .     S
V29     V26    10.0   1_554     S
V30     V32    10.0   .     S
V30     V32    10.0   1_554     S
V30     V20    10.0   1_564     S
V30     V24    10.0   1_565     S
V31     V32    10.0   .     S
V31     V27    10.0   1_556     S
V32     V30    10.0   1_556     S
V32     V24    10.0   1_565     S
V32     V20    10.0   1_565     S
