data_yfr
_audit_creation_date              2020-02-02
_audit_creation_method            'Pymatgen'
_symmetry_space_group_name_H-M    'P1'
_symmetry_Int_Tables_number       1
loop_
_symmetry_equiv_pos_as_xyz
  x,y,z
_cell_length_a                    39.0574
_cell_length_b                    39.0574
_cell_length_c                    31.7878
_cell_angle_alpha                 90.0
_cell_angle_beta                 90.0
_cell_angle_gamma                 90.0
loop_
_atom_site_label
_atom_site_type_symbol
_atom_site_fract_x
_atom_site_fract_y
_atom_site_fract_z
V1     V     0.1225   0.2873   0.4862
V2     V     0.3775   0.2873   0.5138
V3     V     0.4627   0.1275   0.7362
V4     V     0.4627   0.8725   0.7638
V5     V     0.9627   0.6275   0.2362
V6     V     0.9627   0.3725   0.2638
V7     V     0.6225   0.7873   0.9862
V8     V     0.8775   0.7873   0.0138
V9     V     0.1225   0.7127   0.0138
V10     V     0.3775   0.7127   0.9862
V11     V     0.5373   0.6275   0.7638
V12     V     0.5373   0.3725   0.7362
V13     V     0.8775   0.2127   0.4862
V14     V     0.6225   0.2127   0.5138
V15     V     0.0373   0.1275   0.2638
V16     V     0.0373   0.8725   0.2362
V17     V     0.4627   0.6275   0.2638
V18     V     0.4627   0.3725   0.2362
V19     V     0.5373   0.1275   0.2362
V20     V     0.5373   0.8725   0.2638
V21     V     0.6225   0.7127   0.4862
V22     V     0.8775   0.7127   0.5138
V23     V     0.6225   0.2873   0.0138
V24     V     0.8775   0.2873   0.9862
V25     V     0.0373   0.6275   0.7362
V26     V     0.0373   0.3725   0.7638
V27     V     0.1225   0.2127   0.9862
V28     V     0.3775   0.2127   0.0138
V29     V     0.9627   0.1275   0.7638
V30     V     0.9627   0.8725   0.7362
V31     V     0.1225   0.7873   0.5138
V32     V     0.3775   0.7873   0.4862
loop_
_geom_bond_atom_site_label_1
_geom_bond_atom_site_label_2
_geom_bond_distance
_geom_bond_site_symmetry_2
_ccdc_geom_bond_type
V1     V2    10.0   .     S
V1     V6    10.0   1_455     S
V1     V15    10.0   .     S
V1     V13    10.0   1_455     S
V1     V26    10.0   .     S
V2     V3    10.0   .     S
V2     V14    10.0   .     S
V2     V12    10.0   .     S
V2     V18    10.0   .     S
V3     V4    10.0   1_545     S
V3     V14    10.0   .     S
V3     V12    10.0   .     S
V3     V28    10.0   1_556     S
V4     V3    10.0   1_565     S
V4     V10    10.0   .     S
V4     V11    10.0   .     S
V4     V7    10.0   .     S
V4     V32    10.0   .     S
V5     V6    10.0   .     S
V5     V16    10.0   1_655     S
V5     V8    10.0   .     S
V5     V9    10.0   1_655     S
V5     V22    10.0   .     S
V6     V1    10.0   1_655     S
V6     V15    10.0   1_655     S
V6     V13    10.0   .     S
V6     V24    10.0   1_554     S
V7     V8    10.0   1_556     S
V7     V11    10.0   .     S
V7     V10    10.0   .     S
V7     V20    10.0   1_556     S
V8     V7    10.0   1_554     S
V8     V16    10.0   1_655     S
V8     V9    10.0   1_655     S
V8     V30    10.0   1_554     S
V9     V10    10.0   1_554     S
V9     V8    10.0   1_455     S
V9     V5    10.0   1_455     S
V9     V16    10.0   .     S
V9     V25    10.0   1_554     S
V10     V9    10.0   1_556     S
V10     V11    10.0   .     S
V10     V17    10.0   1_556     S
V11     V12    10.0   .     S
V11     V21    10.0   .     S
V12     V14    10.0   .     S
V12     V23    10.0   1_556     S
V13     V14    10.0   .     S
V13     V15    10.0   1_655     S
V13     V1    10.0   1_655     S
V13     V29    10.0   .     S
V14     V19    10.0   .     S
V15     V13    10.0   1_455     S
V15     V16    10.0   1_545     S
V15     V6    10.0   1_455     S
V15     V27    10.0   1_554     S
V16     V8    10.0   1_455     S
V16     V5    10.0   1_455     S
V16     V15    10.0   1_565     S
V16     V31    10.0   .     S
V17     V18    10.0   .     S
V17     V20    10.0   .     S
V17     V21    10.0   .     S
V17     V32    10.0   .     S
V17     V10    10.0   1_554     S
V18     V23    10.0   .     S
V18     V19    10.0   .     S
V18     V28    10.0   .     S
V19     V28    10.0   .     S
V19     V20    10.0   1_545     S
V19     V23    10.0   .     S
V20     V7    10.0   1_554     S
V20     V32    10.0   .     S
V20     V19    10.0   1_565     S
V20     V21    10.0   .     S
V21     V32    10.0   .     S
V21     V22    10.0   .     S
V22     V31    10.0   1_655     S
V22     V30    10.0   .     S
V22     V25    10.0   1_655     S
V23     V12    10.0   1_554     S
V23     V24    10.0   1_554     S
V23     V28    10.0   .     S
V24     V6    10.0   1_556     S
V24     V23    10.0   1_556     S
V24     V26    10.0   1_655     S
V24     V27    10.0   1_655     S
V24     V29    10.0   .     S
V25     V26    10.0   .     S
V25     V30    10.0   1_455     S
V25     V22    10.0   1_455     S
V25     V31    10.0   .     S
V25     V9    10.0   1_556     S
V26     V24    10.0   1_455     S
V26     V27    10.0   .     S
V26     V29    10.0   1_455     S
V27     V24    10.0   1_455     S
V27     V28    10.0   1_556     S
V27     V29    10.0   1_455     S
V27     V15    10.0   1_556     S
V28     V27    10.0   1_554     S
V28     V3    10.0   1_554     S
V29     V26    10.0   1_655     S
V29     V30    10.0   1_545     S
V29     V27    10.0   1_655     S
V30     V29    10.0   1_565     S
V30     V31    10.0   1_655     S
V30     V25    10.0   1_655     S
V30     V8    10.0   1_556     S
V31     V32    10.0   .     S
V31     V22    10.0   1_455     S
V31     V30    10.0   1_455     S
