data_yfv
_audit_creation_date              2020-02-02
_audit_creation_method            'Pymatgen'
_symmetry_space_group_name_H-M    'P1'
_symmetry_Int_Tables_number       1
loop_
_symmetry_equiv_pos_as_xyz
  x,y,z
_cell_length_a                    19.9697
_cell_length_b                    19.9697
_cell_length_c                    72.5845
_cell_angle_alpha                 90.0
_cell_angle_beta                 90.0
_cell_angle_gamma                 90.0
loop_
_atom_site_label
_atom_site_type_symbol
_atom_site_fract_x
_atom_site_fract_y
_atom_site_fract_z
V1     V     0.7362   0.3746   0.8096
V2     V     0.6246   0.4862   0.9404
V3     V     0.7638   0.8746   0.8096
V4     V     0.8754   0.9862   0.9404
V5     V     0.2362   0.6254   0.8096
V6     V     0.1246   0.5138   0.9404
V7     V     0.2638   0.1254   0.8096
V8     V     0.3754   0.0138   0.9404
V9     V     0.8754   0.4862   0.0596
V10     V     0.7638   0.3746   0.1904
V11     V     0.3754   0.5138   0.0596
V12     V     0.2638   0.6254   0.1904
V13     V     0.1246   0.0138   0.0596
V14     V     0.2362   0.1254   0.1904
V15     V     0.6246   0.9862   0.0596
V16     V     0.7362   0.8746   0.1904
V17     V     0.7638   0.6254   0.3096
V18     V     0.8754   0.5138   0.4404
V19     V     0.7362   0.1254   0.3096
V20     V     0.6246   0.0138   0.4404
V21     V     0.2638   0.3746   0.3096
V22     V     0.3754   0.4862   0.4404
V23     V     0.1246   0.9862   0.4404
V24     V     0.2362   0.8746   0.3096
V25     V     0.6246   0.5138   0.5596
V26     V     0.7362   0.6254   0.6904
V27     V     0.2362   0.3746   0.6904
V28     V     0.1246   0.4862   0.5596
V29     V     0.3754   0.9862   0.5596
V30     V     0.2638   0.8746   0.6904
V31     V     0.7638   0.1254   0.6904
V32     V     0.8754   0.0138   0.5596
loop_
_geom_bond_atom_site_label_1
_geom_bond_atom_site_label_2
_geom_bond_distance
_geom_bond_site_symmetry_2
_ccdc_geom_bond_type
V1     V2    9.999   .     S
V1     V3    10.0   1_545     S
V1     V3    10.0   .     S
V1     V26    10.0   .     S
V1     V31    10.0   .     S
V2     V11    10.0   1_556     S
V2     V9    10.0   1_556     S
V2     V6    10.0   1_655     S
V2     V6    10.0   .     S
V3     V1    10.0   1_565     S
V3     V4    9.999   .     S
V3     V26    10.0   .     S
V3     V31    10.0   1_565     S
V4     V15    10.0   1_556     S
V4     V13    10.0   1_666     S
V4     V8    10.0   1_665     S
V4     V8    10.0   1_565     S
V5     V30    10.0   .     S
V5     V27    10.0   .     S
V5     V6    9.999   .     S
V5     V7    10.0   1_565     S
V5     V7    10.0   .     S
V6     V9    10.0   1_456     S
V6     V11    10.0   1_556     S
V6     V2    10.0   1_455     S
V7     V27    10.0   .     S
V7     V30    10.0   1_545     S
V7     V8    9.999   .     S
V7     V5    10.0   1_545     S
V8     V15    10.0   1_546     S
V8     V13    10.0   1_556     S
V8     V4    10.0   1_445     S
V8     V4    10.0   1_545     S
V9     V2    10.0   1_554     S
V9     V6    10.0   1_654     S
V9     V10    9.999   .     S
V9     V11    10.0   .     S
V9     V11    10.0   1_655     S
V10     V16    10.0   1_545     S
V10     V16    10.0   .     S
V10     V17    10.0   .     S
V10     V19    10.0   .     S
V11     V2    10.0   1_554     S
V11     V6    10.0   1_554     S
V11     V9    10.0   1_455     S
V11     V12    9.999   .     S
V12     V24    10.0   .     S
V12     V21    10.0   .     S
V12     V14    10.0   1_565     S
V12     V14    10.0   .     S
V13     V8    10.0   1_554     S
V13     V4    10.0   1_444     S
V13     V14    9.999   .     S
V13     V15    10.0   1_545     S
V13     V15    10.0   1_445     S
V14     V21    10.0   .     S
V14     V24    10.0   1_545     S
V14     V12    10.0   1_545     S
V15     V8    10.0   1_564     S
V15     V4    10.0   1_554     S
V15     V16    9.999   .     S
V15     V13    10.0   1_565     S
V15     V13    10.0   1_665     S
V16     V10    10.0   1_565     S
V16     V17    10.0   .     S
V16     V19    10.0   1_565     S
V17     V18    9.999   .     S
V17     V19    10.0   1_565     S
V17     V19    10.0   .     S
V18     V25    10.0   .     S
V18     V28    10.0   1_655     S
V18     V22    10.0   1_655     S
V18     V22    10.0   .     S
V19     V16    10.0   1_545     S
V19     V17    10.0   1_545     S
V19     V20    9.999   .     S
V20     V29    10.0   1_545     S
V20     V32    10.0   .     S
V20     V23    10.0   1_545     S
V20     V23    10.0   1_645     S
V21     V22    9.999   .     S
V21     V24    10.0   .     S
V21     V24    10.0   1_545     S
V22     V25    10.0   .     S
V22     V28    10.0   .     S
V22     V18    10.0   1_455     S
V23     V29    10.0   .     S
V23     V32    10.0   1_465     S
V23     V20    10.0   1_565     S
V23     V20    10.0   1_465     S
V23     V24    9.999   .     S
V24     V14    10.0   1_565     S
V24     V21    10.0   1_565     S
V25     V26    9.999   .     S
V25     V28    10.0   .     S
V25     V28    10.0   1_655     S
V26     V31    10.0   1_565     S
V26     V31    10.0   .     S
V27     V28    9.999   .     S
V27     V30    10.0   .     S
V27     V30    10.0   1_545     S
V28     V18    10.0   1_455     S
V28     V25    10.0   1_455     S
V29     V20    10.0   1_565     S
V29     V30    9.999   .     S
V29     V32    10.0   1_465     S
V29     V32    10.0   1_565     S
V30     V7    10.0   1_565     S
V30     V27    10.0   1_565     S
V31     V3    10.0   1_545     S
V31     V26    10.0   1_545     S
V31     V32    9.999   .     S
V32     V23    10.0   1_645     S
V32     V29    10.0   1_645     S
V32     V29    10.0   1_545     S
