data_ykh
_audit_creation_date              2020-02-02
_audit_creation_method            'Pymatgen'
_symmetry_space_group_name_H-M    'P1'
_symmetry_Int_Tables_number       1
loop_
_symmetry_equiv_pos_as_xyz
  x,y,z
_cell_length_a                    51.3412
_cell_length_b                    51.3412
_cell_length_c                    60.2915
_cell_angle_alpha                 90.0
_cell_angle_beta                 90.0
_cell_angle_gamma                 90.0
loop_
_atom_site_label
_atom_site_type_symbol
_atom_site_fract_x
_atom_site_fract_y
_atom_site_fract_z
Er1     Er     0.5297   0.108   0.234
Ti2     Ti     0.7163   0.0667   0.2018
Er3     Er     0.892   0.0297   0.266
Ti4     Ti     0.9333   0.2163   0.2982
Er5     Er     0.608   0.4703   0.266
Ti6     Ti     0.5667   0.2838   0.2982
Ce7     Ce     0.75   0.25   0.25
Er8     Er     0.9703   0.392   0.234
Ti9     Ti     0.7837   0.4333   0.2018
Er10     Er     0.0297   0.892   0.266
Ti11     Ti     0.2162   0.9333   0.2982
Er12     Er     0.108   0.5297   0.234
Ti13     Ti     0.0667   0.7163   0.2018
Er14     Er     0.4703   0.608   0.266
Ti15     Ti     0.2838   0.5667   0.2982
Ce16     Ce     0.25   0.75   0.25
Er17     Er     0.392   0.9703   0.234
Ti18     Ti     0.4333   0.7837   0.2018
V19     V     0.0832   0.5546   0.9189
V20     V     0.9454   0.4168   0.9189
V21     V     0.0546   0.5832   0.0811
V22     V     0.9168   0.4454   0.0811
V23     V     0.4168   0.9454   0.9189
V24     V     0.5546   0.0832   0.9189
V25     V     0.5832   0.0546   0.0811
V26     V     0.4454   0.9168   0.0811
V27     V     0.9454   0.0832   0.4189
V28     V     0.0832   0.9454   0.4189
V29     V     0.0546   0.9168   0.5811
V30     V     0.9168   0.0546   0.5811
V31     V     0.5546   0.4168   0.4189
V32     V     0.4168   0.5546   0.4189
V33     V     0.4454   0.5832   0.5811
V34     V     0.5832   0.4454   0.5811
Er35     Er     0.892   0.4703   0.766
Ti36     Ti     0.9333   0.2838   0.7982
Er37     Er     0.9703   0.108   0.734
Ti38     Ti     0.7837   0.0667   0.7018
Er39     Er     0.608   0.0297   0.766
Ti40     Ti     0.5667   0.2162   0.7982
Ce41     Ce     0.75   0.25   0.75
Er42     Er     0.5297   0.392   0.734
Ti43     Ti     0.7163   0.4333   0.7018
Er44     Er     0.108   0.9703   0.734
Ti45     Ti     0.0667   0.7837   0.7018
Er46     Er     0.4703   0.892   0.766
Ti47     Ti     0.2838   0.9333   0.7982
Er48     Er     0.0297   0.608   0.766
Ti49     Ti     0.2163   0.5667   0.7982
Ce50     Ce     0.25   0.75   0.75
Er51     Er     0.392   0.5297   0.734
Ti52     Ti     0.4333   0.7163   0.7018
loop_
_geom_bond_atom_site_label_1
_geom_bond_atom_site_label_2
_geom_bond_distance
_geom_bond_site_symmetry_2
_ccdc_geom_bond_type
Er1     Ti2    10.0   .     S
Er1     V25    10.0   .     S
Er1     Ti6    10.0   .     S
Er1     Er17    10.0   1_545     S
Ti2     V25    10.0   .     S
Ti2     Ce7    10.0   .     S
Ti2     Er3    10.0   .     S
Er3     Ti4    10.0   .     S
Er3     V27    10.0   .     S
Er3     Er10    10.0   1_645     S
Ti4     V27    10.0   .     S
Ti4     Ce7    10.0   .     S
Ti4     Er8    10.0   .     S
Er5     Ti6    10.0   .     S
Er5     V31    10.0   .     S
Er5     Ti9    10.0   .     S
Er5     Er14    10.0   .     S
Ti6     V31    10.0   .     S
Ti6     Ce7    10.0   .     S
Ce7     Ti9    10.0   .     S
Er8     Ti9    10.0   .     S
Er8     V22    10.0   .     S
Er8     Er12    10.0   1_655     S
Ti9     V22    10.0   .     S
Er10     Ti11    10.0   .     S
Er10     V28    10.0   .     S
Er10     Ti13    10.0   .     S
Er10     Er3    10.0   1_465     S
Ti11     V28    10.0   .     S
Ti11     Ce16    10.0   .     S
Ti11     Er17    10.0   .     S
Er12     Ti13    10.0   .     S
Er12     V21    10.0   .     S
Er12     Ti15    10.0   .     S
Er12     Er8    10.0   1_455     S
Ti13     V21    10.0   .     S
Ti13     Ce16    10.0   .     S
Er14     Ti15    10.0   .     S
Er14     V32    10.0   .     S
Er14     Ti18    10.0   .     S
Ti15     V32    10.0   .     S
Ti15     Ce16    10.0   .     S
Ce16     Ti18    10.0   .     S
Er17     Er1    10.0   1_565     S
Er17     Ti18    10.0   .     S
Er17     V26    10.0   .     S
Ti18     V26    10.0   .     S
V19     V20    9.999   1_455     S
V19     V21    10.0   1_556     S
V19     Er48    10.0   .     S
V19     Ti49    10.0   .     S
V20     V19    9.999   1_655     S
V20     V22    10.0   1_556     S
V20     Er35    10.0   .     S
V20     Ti36    10.0   .     S
V21     V22    9.999   1_455     S
V21     V19    10.0   1_554     S
V22     V21    9.999   1_655     S
V22     V20    10.0   1_554     S
V23     V24    9.999   1_565     S
V23     V26    10.0   1_556     S
V23     Er46    10.0   .     S
V23     Ti47    10.0   .     S
V24     V23    9.999   1_545     S
V24     V25    10.0   1_556     S
V24     Er39    10.0   .     S
V24     Ti40    10.0   .     S
V25     V26    9.999   1_545     S
V25     V24    10.0   1_554     S
V26     V25    9.999   1_565     S
V26     V23    10.0   1_554     S
V27     V28    9.999   1_645     S
V27     V30    10.0   .     S
V28     V27    9.999   1_465     S
V28     V29    10.0   .     S
V29     V30    9.999   1_465     S
V29     Er44    10.0   .     S
V29     Ti45    10.0   .     S
V30     V29    9.999   1_645     S
V30     Er37    10.0   .     S
V30     Ti38    10.0   .     S
V31     V32    9.999   .     S
V31     V34    10.0   .     S
V32     V33    10.0   .     S
V33     V34    9.999   .     S
V33     Er51    10.0   .     S
V33     Ti52    10.0   .     S
V34     Er42    10.0   .     S
V34     Ti43    10.0   .     S
Er35     Ti36    10.0   .     S
Er35     Ti43    10.0   .     S
Er35     Er48    10.0   1_655     S
Ti36     Ce41    10.0   .     S
Ti36     Er37    10.0   .     S
Er37     Ti38    10.0   .     S
Er37     Er44    10.0   1_645     S
Ti38     Ce41    10.0   .     S
Ti38     Er39    10.0   .     S
Er39     Ti40    10.0   .     S
Er39     Er46    10.0   1_545     S
Ti40     Ce41    10.0   .     S
Ti40     Er42    10.0   .     S
Ce41     Ti43    10.0   .     S
Er42     Ti43    10.0   .     S
Er42     Er51    10.0   .     S
Er44     Er37    10.0   1_465     S
Er44     Ti45    10.0   .     S
Er44     Ti47    10.0   .     S
Ti45     Ce50    10.0   .     S
Ti45     Er48    10.0   .     S
Er46     Ti47    10.0   .     S
Er46     Ti52    10.0   .     S
Er46     Er39    10.0   1_565     S
Ti47     Ce50    10.0   .     S
Er48     Er35    10.0   1_455     S
Er48     Ti49    10.0   .     S
Ti49     Ce50    10.0   .     S
Ti49     Er51    10.0   .     S
Ce50     Ti52    10.0   .     S
Er51     Ti52    10.0   .     S
