data_zaz
_audit_creation_date              2020-02-02
_audit_creation_method            'Pymatgen'
_symmetry_space_group_name_H-M    'P1'
_symmetry_Int_Tables_number       1
loop_
_symmetry_equiv_pos_as_xyz
  x,y,z
_cell_length_a                    32.6804
_cell_length_b                    36.1515
_cell_length_c                    19.6705
_cell_angle_alpha                 90.0
_cell_angle_beta                 90.0
_cell_angle_gamma                 90.0
loop_
_atom_site_label
_atom_site_type_symbol
_atom_site_fract_x
_atom_site_fract_y
_atom_site_fract_z
Ti1     Ti     0.8801   0.5787   0.2573
V2     V     0.8698   0.5754   0.7632
V3     V     0.6302   0.4246   0.7632
Ti4     Ti     0.6199   0.4213   0.2573
Er5     Er     0.1246   0.6654   0.9677
Er6     Er     0.3754   0.3346   0.9677
Ti7     Ti     0.1199   0.4213   0.7427
V8     V     0.1302   0.4246   0.2368
V9     V     0.3698   0.5754   0.2368
Ti10     Ti     0.3801   0.5787   0.7427
Er11     Er     0.6246   0.6654   0.0323
Er12     Er     0.8754   0.3346   0.0323
Ti13     Ti     0.3801   0.9213   0.7573
V14     V     0.1302   0.0754   0.2632
V15     V     0.3698   0.9246   0.2632
Ti16     Ti     0.1199   0.0787   0.7573
Er17     Er     0.6246   0.8346   0.4677
Er18     Er     0.8754   0.1654   0.4677
Ti19     Ti     0.8801   0.9213   0.2427
V20     V     0.8698   0.9246   0.7368
V21     V     0.6302   0.0754   0.7368
Ti22     Ti     0.6199   0.0787   0.2427
Er23     Er     0.1246   0.8346   0.5323
Er24     Er     0.3754   0.1654   0.5323
loop_
_geom_bond_atom_site_label_1
_geom_bond_atom_site_label_2
_geom_bond_distance
_geom_bond_site_symmetry_2
_ccdc_geom_bond_type
Ti1     V2    9.726   1_554     S
Ti1     Er11    9.957   .     S
Ti1     V2    9.957   .     S
Ti1     Er12    9.874   .     S
Ti1     Ti4    10.232   .     S
Ti1     V8    9.899   1_655     S
Ti1     Er5    10.302   1_654     S
V2     Er5    9.806   1_655     S
V2     Ti1    9.726   1_556     S
V2     V3    9.54   .     S
V2     Er12    10.192   1_556     S
V2     Er11    10.138   1_556     S
V2     Ti7    9.899   1_655     S
V3     Er6    9.806   .     S
V3     Ti4    9.726   1_556     S
V3     Ti4    9.957   .     S
V3     Er11    10.192   1_556     S
V3     Er12    10.138   1_556     S
V3     Ti10    9.899   .     S
Ti4     V3    9.726   1_554     S
Ti4     Er12    9.957   .     S
Ti4     Er11    9.874   .     S
Ti4     V9    9.899   .     S
Ti4     Er6    10.302   1_554     S
Er5     V2    9.806   1_455     S
Er5     Er23    10.524   .     S
Er5     Ti10    9.957   .     S
Er5     V8    10.192   1_556     S
Er5     Ti7    9.874   .     S
Er5     V9    10.138   1_556     S
Er5     Ti1    10.302   1_456     S
Er6     Er24    10.524   .     S
Er6     Ti7    9.957   .     S
Er6     V9    10.192   1_556     S
Er6     Ti10    9.874   .     S
Er6     V8    10.138   1_556     S
Er6     Ti4    10.302   1_556     S
Ti7     V8    9.726   1_556     S
Ti7     V8    9.957   .     S
Ti7     Ti10    10.232   .     S
Ti7     V2    9.899   1_455     S
Ti7     Er12    10.302   1_456     S
V8     Er12    9.806   1_455     S
V8     Ti7    9.726   1_554     S
V8     V9    9.54   .     S
V8     Er5    10.192   1_554     S
V8     Er6    10.138   1_554     S
V8     Ti1    9.899   1_455     S
V9     Er11    9.806   .     S
V9     Ti10    9.726   1_554     S
V9     Ti10    9.957   .     S
V9     Er6    10.192   1_554     S
V9     Er5    10.138   1_554     S
Ti10     V9    9.726   1_556     S
Ti10     Er11    10.302   1_556     S
Er11     Er17    10.524   .     S
Er11     V3    10.192   1_554     S
Er11     V2    10.138   1_554     S
Er11     Ti10    10.302   1_554     S
Er12     V8    9.806   1_655     S
Er12     Er18    10.524   .     S
Er12     V2    10.192   1_554     S
Er12     V3    10.138   1_554     S
Er12     Ti7    10.302   1_654     S
Ti13     V15    9.726   .     S
Ti13     Er23    9.957   .     S
Ti13     V15    9.957   1_556     S
Ti13     Er24    9.874   1_565     S
Ti13     Ti16    10.232   1_565     S
Ti13     V21    9.899   1_565     S
Ti13     Er17    10.302   .     S
V14     Er18    9.806   1_455     S
V14     Ti16    9.726   .     S
V14     V15    9.54   1_545     S
V14     Ti16    9.957   1_554     S
V14     Er23    10.192   1_545     S
V14     Er24    10.138   .     S
V14     Ti19    9.899   1_445     S
V15     Er17    9.806   .     S
V15     V14    9.54   1_565     S
V15     Ti13    9.957   1_554     S
V15     Er24    10.192   1_565     S
V15     Er23    10.138   .     S
V15     Ti22    9.899   1_565     S
Ti16     Er24    9.957   .     S
Ti16     V14    9.957   1_556     S
Ti16     Er23    9.874   1_545     S
Ti16     Ti13    10.232   1_545     S
Ti16     V20    9.899   1_445     S
Ti16     Er18    10.302   1_455     S
Er17     Ti19    9.957   .     S
Er17     V21    10.192   1_565     S
Er17     Ti22    9.874   1_565     S
Er17     V20    10.138   .     S
Er18     V14    9.806   1_655     S
Er18     Ti22    9.957   .     S
Er18     V20    10.192   1_545     S
Er18     Ti19    9.874   1_545     S
Er18     V21    10.138   .     S
Er18     Ti16    10.302   1_655     S
Ti19     V20    9.726   .     S
Ti19     V20    9.957   1_554     S
Ti19     Er18    9.874   1_565     S
Ti19     Ti22    10.232   1_565     S
Ti19     V14    9.899   1_665     S
Ti19     Er23    10.302   1_655     S
V20     Er23    9.806   1_655     S
V20     V21    9.54   1_565     S
V20     Ti19    9.957   1_556     S
V20     Er18    10.192   1_565     S
V20     Ti16    9.899   1_665     S
V21     Er24    9.806   .     S
V21     Ti22    9.726   .     S
V21     V20    9.54   1_545     S
V21     Ti22    9.957   1_556     S
V21     Er17    10.192   1_545     S
V21     Ti13    9.899   1_545     S
Ti22     V21    9.957   1_554     S
Ti22     Er17    9.874   1_545     S
Ti22     Ti19    10.232   1_545     S
Ti22     V15    9.899   1_545     S
Ti22     Er24    10.302   .     S
Er23     V20    9.806   1_455     S
Er23     V14    10.192   1_565     S
Er23     Ti16    9.874   1_565     S
Er23     Ti19    10.302   1_455     S
Er24     V15    10.192   1_545     S
Er24     Ti13    9.874   1_545     S
