data_zba
_audit_creation_date              2020-02-02
_audit_creation_method            'Pymatgen'
_symmetry_space_group_name_H-M    'P1'
_symmetry_Int_Tables_number       1
loop_
_symmetry_equiv_pos_as_xyz
  x,y,z
_cell_length_a                    41.4681
_cell_length_b                    41.4681
_cell_length_c                    25.3044
_cell_angle_alpha                 90.0
_cell_angle_beta                 90.0
_cell_angle_gamma                 90.0
loop_
_atom_site_label
_atom_site_type_symbol
_atom_site_fract_x
_atom_site_fract_y
_atom_site_fract_z
V1     V     0.7287   0.3653   0.1809
Er2     Er     0.8932   0.2169   0.3278
V3     V     0.7287   0.1347   0.0691
Er4     Er     0.8932   0.2831   0.9222
V5     V     0.7713   0.3653   0.5691
Er6     Er     0.6068   0.2169   0.4222
V7     V     0.7713   0.1347   0.6809
Er8     Er     0.6068   0.2831   0.8278
V9     V     0.6347   0.7713   0.4309
Er10     Er     0.7831   0.6068   0.5778
V11     V     0.8653   0.7713   0.3191
Er12     Er     0.7169   0.6068   0.1722
V13     V     0.6347   0.7287   0.8191
Er14     Er     0.7831   0.8932   0.6722
V15     V     0.8653   0.7287   0.9309
Er16     Er     0.7169   0.8932   0.0778
V17     V     0.3653   0.2287   0.4309
Er18     Er     0.2169   0.3932   0.5778
V19     V     0.1347   0.2287   0.3191
Er20     Er     0.2831   0.3932   0.1722
V21     V     0.3653   0.2713   0.8191
Er22     Er     0.2169   0.1068   0.6722
V23     V     0.1347   0.2713   0.9309
Er24     Er     0.2831   0.1068   0.0778
V25     V     0.2713   0.8653   0.0691
Er26     Er     0.1068   0.7169   0.9222
V27     V     0.2713   0.6347   0.1809
Er28     Er     0.1068   0.7831   0.3278
V29     V     0.2287   0.6347   0.5691
Er30     Er     0.3932   0.7831   0.4222
V31     V     0.2287   0.8653   0.6809
Er32     Er     0.3932   0.7169   0.8278
loop_
_geom_bond_atom_site_label_1
_geom_bond_atom_site_label_2
_geom_bond_distance
_geom_bond_site_symmetry_2
_ccdc_geom_bond_type
V1     Er4    10.047   1_554     S
V1     Er6    10.036   .     S
V1     Er12    10.031   .     S
V1     Er2    9.91   .     S
V1     V3    9.968   .     S
V1     V5    9.983   .     S
Er2     V3    10.047   .     S
Er2     V5    10.036   .     S
Er2     V19    10.031   1_655     S
V3     Er8    10.036   1_554     S
V3     Er16    10.031   1_545     S
V3     Er4    9.91   1_554     S
V3     V7    9.983   1_554     S
Er4     V7    10.036   .     S
Er4     V1    10.047   1_556     S
Er4     V23    10.031   1_655     S
Er4     V3    9.91   1_556     S
V5     Er8    10.047   .     S
V5     Er10    10.031   .     S
V5     Er6    9.91   .     S
V5     V7    9.968   .     S
Er6     V7    10.047   .     S
Er6     V17    10.031   .     S
V7     Er14    10.031   1_545     S
V7     Er8    9.91   .     S
V7     V3    9.983   1_556     S
Er8     V3    10.036   1_556     S
Er8     V21    10.031   .     S
V9     Er14    10.036   .     S
V9     Er12    10.047   .     S
V9     Er30    10.031   .     S
V9     Er10    9.91   .     S
V9     V13    9.983   .     S
V9     V11    9.968   .     S
Er10     V13    10.036   .     S
Er10     V11    10.047   .     S
V11     Er16    10.036   .     S
V11     Er28    10.031   1_655     S
V11     Er12    9.91   .     S
V11     V15    9.983   1_554     S
Er12     V15    10.036   1_554     S
V13     Er16    10.047   1_556     S
V13     Er32    10.031   .     S
V13     Er14    9.91   .     S
V13     V15    9.968   .     S
Er14     V15    10.047   .     S
Er14     V7    10.031   1_565     S
V15     Er12    10.036   1_556     S
V15     Er26    10.031   1_655     S
V15     Er16    9.91   1_556     S
V15     V11    9.983   1_556     S
Er16     V13    10.047   1_554     S
Er16     V3    10.031   1_565     S
Er16     V15    9.91   1_554     S
V17     Er22    10.036   .     S
V17     Er20    10.047   .     S
V17     Er18    9.91   .     S
V17     V21    9.983   .     S
V17     V19    9.968   .     S
Er18     V21    10.036   .     S
Er18     V19    10.047   .     S
Er18     V29    10.031   .     S
V19     Er2    10.031   1_455     S
V19     Er24    10.036   .     S
V19     Er20    9.91   .     S
V19     V23    9.983   1_554     S
Er20     V23    10.036   1_554     S
Er20     V27    10.031   .     S
V21     Er24    10.047   1_556     S
V21     Er22    9.91   .     S
V21     V23    9.968   .     S
Er22     V23    10.047   .     S
Er22     V31    10.031   1_545     S
V23     Er4    10.031   1_455     S
V23     Er20    10.036   1_556     S
V23     Er24    9.91   1_556     S
V23     V19    9.983   1_556     S
Er24     V21    10.047   1_554     S
Er24     V25    10.031   1_545     S
Er24     V23    9.91   1_554     S
V25     Er24    10.031   1_565     S
V25     Er32    10.036   1_554     S
V25     Er28    10.047   .     S
V25     Er26    9.91   1_554     S
V25     V31    9.983   1_554     S
V25     V27    9.968   .     S
Er26     V31    10.036   .     S
Er26     V27    10.047   1_556     S
Er26     V15    10.031   1_455     S
Er26     V25    9.91   1_556     S
V27     Er26    10.047   1_554     S
V27     Er30    10.036   .     S
V27     Er28    9.91   .     S
V27     V29    9.983   .     S
Er28     V29    10.036   .     S
Er28     V11    10.031   1_455     S
V29     Er32    10.047   .     S
V29     Er30    9.91   .     S
V29     V31    9.968   .     S
Er30     V31    10.047   .     S
V31     Er22    10.031   1_565     S
V31     Er32    9.91   .     S
V31     V25    9.983   1_556     S
Er32     V25    10.036   1_556     S
