data_zbe
_audit_creation_date              2020-02-02
_audit_creation_method            'Pymatgen'
_symmetry_space_group_name_H-M    'P1'
_symmetry_Int_Tables_number       1
loop_
_symmetry_equiv_pos_as_xyz
  x,y,z
_cell_length_a                    35.4743
_cell_length_b                    30.6817
_cell_length_c                    32.5425
_cell_angle_alpha                 90.0
_cell_angle_beta                 108.7428
_cell_angle_gamma                 90.0
loop_
_atom_site_label
_atom_site_type_symbol
_atom_site_fract_x
_atom_site_fract_y
_atom_site_fract_z
V1     V     0.3381   0.6525   0.391
Ti2     Ti     0.3643   0.3477   0.5052
Er3     Er     0.3511   0.4031   0.1981
V4     V     0.3381   0.3475   0.891
Ti5     Ti     0.3643   0.6523   0.0052
Er6     Er     0.3511   0.5969   0.6981
V7     V     0.6619   0.6525   0.109
Ti8     Ti     0.6357   0.3477   0.9948
Er9     Er     0.6489   0.4031   0.3019
V10     V     0.6619   0.3475   0.609
Ti11     Ti     0.6357   0.6523   0.4948
Er12     Er     0.6489   0.5969   0.8019
V13     V     0.1619   0.8475   0.609
Ti14     Ti     0.1357   0.1523   0.4948
Er15     Er     0.1489   0.0969   0.8019
V16     V     0.1619   0.1525   0.109
Ti17     Ti     0.1357   0.8477   0.9948
Er18     Er     0.1489   0.9031   0.3019
V19     V     0.8381   0.8475   0.891
Ti20     Ti     0.8643   0.1523   0.0052
Er21     Er     0.8511   0.0969   0.6981
V22     V     0.8381   0.1525   0.391
Ti23     Ti     0.8643   0.8477   0.5052
Er24     Er     0.8511   0.9031   0.1981
loop_
_geom_bond_atom_site_label_1
_geom_bond_atom_site_label_2
_geom_bond_distance
_geom_bond_site_symmetry_2
_ccdc_geom_bond_type
V1     Er6    10.0   .     S
V1     Ti2    9.995   .     S
V1     Er3    10.003   .     S
V1     Ti11    10.0   .     S
V1     Er18    10.004   .     S
Ti2     Er6    9.999   .     S
Ti2     Er3    9.999   .     S
Ti2     V10    10.0   .     S
Ti2     Ti14    10.001   .     S
Er3     V4    10.0   1_554     S
Er3     Ti5    9.999   .     S
Er3     Er9    10.001   .     S
Er3     V16    10.004   .     S
V4     Er3    10.0   1_556     S
V4     Ti5    9.995   1_556     S
V4     Er6    10.003   .     S
V4     Ti8    10.0   .     S
V4     Er15    10.004   .     S
Ti5     V4    9.995   1_554     S
Ti5     Er6    9.999   1_554     S
Ti5     V7    10.0   .     S
Ti5     Ti17    10.001   1_554     S
Er6     Ti5    9.999   1_556     S
Er6     Er12    10.001   .     S
Er6     V13    10.004   .     S
V7     Er12    10.0   1_554     S
V7     Ti8    9.995   1_554     S
V7     Er9    10.003   .     S
V7     Er24    10.004   .     S
Ti8     Er12    9.999   .     S
Ti8     V7    9.995   1_556     S
Ti8     Er9    9.999   1_556     S
Ti8     Ti20    10.001   1_556     S
Er9     Ti8    9.999   1_554     S
Er9     V10    10.0   .     S
Er9     Ti11    9.999   .     S
Er9     V22    10.004   .     S
V10     Ti11    9.995   .     S
V10     Er12    10.003   .     S
V10     Er21    10.004   .     S
Ti11     Er12    9.999   .     S
Ti11     Ti23    10.001   .     S
Er12     V7    10.0   1_556     S
Er12     V19    10.004   .     S
V13     Er18    10.0   .     S
V13     Ti14    9.995   1_565     S
V13     Er15    10.003   1_565     S
V13     Ti23    10.0   1_455     S
Ti14     Er18    9.999   1_545     S
Ti14     V13    9.995   1_545     S
Ti14     Er15    9.999   .     S
Ti14     V22    10.0   1_455     S
Er15     V13    10.003   1_545     S
Er15     V16    10.0   1_556     S
Er15     Ti17    9.999   1_545     S
Er15     Er21    10.001   1_455     S
V16     Er15    10.0   1_554     S
V16     Ti17    9.995   1_544     S
V16     Er18    10.003   1_545     S
V16     Ti20    10.0   1_455     S
Ti17     Ti5    10.001   1_556     S
Ti17     Er15    9.999   1_565     S
Ti17     V16    9.995   1_566     S
Ti17     Er18    9.999   1_556     S
Ti17     V19    10.0   1_455     S
Er18     Ti14    9.999   1_565     S
Er18     V16    10.003   1_565     S
Er18     Ti17    9.999   1_554     S
Er18     Er24    10.001   1_455     S
V19     Er24    10.0   1_556     S
V19     Ti20    9.995   1_566     S
V19     Er21    10.003   1_565     S
V19     Ti17    10.0   1_655     S
Ti20     V16    10.0   1_655     S
Ti20     Er24    9.999   1_545     S
Ti20     V19    9.995   1_544     S
Ti20     Er21    9.999   1_554     S
Ti20     Ti8    10.001   1_554     S
Er21     V19    10.003   1_545     S
Er21     Ti20    9.999   1_556     S
Er21     V22    10.0   .     S
Er21     Ti23    9.999   1_545     S
Er21     Er15    10.001   1_655     S
V22     Ti23    9.995   1_545     S
V22     Er24    10.003   1_545     S
V22     Ti14    10.0   1_655     S
Ti23     V13    10.0   1_655     S
Ti23     Er21    9.999   1_565     S
Ti23     V22    9.995   1_565     S
Ti23     Er24    9.999   .     S
Er24     V19    10.0   1_554     S
Er24     Ti20    9.999   1_565     S
Er24     V22    10.003   1_565     S
Er24     Er18    10.001   1_655     S
