data_zbf
_audit_creation_date              2020-02-02
_audit_creation_method            'Pymatgen'
_symmetry_space_group_name_H-M    'P1'
_symmetry_Int_Tables_number       1
loop_
_symmetry_equiv_pos_as_xyz
  x,y,z
_cell_length_a                    20.0231
_cell_length_b                    19.9983
_cell_length_c                    17.3212
_cell_angle_alpha                 90.0
_cell_angle_beta                 90.0
_cell_angle_gamma                 90.0
loop_
_atom_site_label
_atom_site_type_symbol
_atom_site_fract_x
_atom_site_fract_y
_atom_site_fract_z
Er1     Er     0.75   0.0   0.5
Er2     Er     0.25   0.0   0.5
V3     V     0.2505   0.7501   0.0
V4     V     0.7495   0.7501   0.0
V5     V     0.2505   0.2499   0.0
V6     V     0.7495   0.2499   0.0
loop_
_geom_bond_atom_site_label_1
_geom_bond_atom_site_label_2
_geom_bond_distance
_geom_bond_site_symmetry_2
_ccdc_geom_bond_type
Er1     V6    9.999   1_556     S
Er1     V4    9.999   1_546     S
Er1     V4    9.999   1_545     S
Er1     V6    9.999   .     S
Er1     Er2    10.012   1_655     S
Er1     Er2    10.012   .     S
Er2     V3    9.999   1_546     S
Er2     V5    9.999   1_556     S
Er2     V5    9.999   .     S
Er2     V3    9.999   1_545     S
Er2     Er1    10.012   1_455     S
V3     Er2    9.999   1_564     S
V3     V4    9.993   .     S
V3     V5    9.996   1_565     S
V3     Er2    9.999   1_565     S
V3     V5    10.002   .     S
V4     Er1    9.999   1_564     S
V4     Er1    9.999   1_565     S
V4     V6    9.996   1_565     S
V4     V6    10.002   .     S
V5     Er2    9.999   1_554     S
V5     V6    9.993   .     S
V5     V3    9.996   1_545     S
V6     Er1    9.999   1_554     S
V6     V4    9.996   1_545     S
