data_zbi
_audit_creation_date              2020-02-02
_audit_creation_method            'Pymatgen'
_symmetry_space_group_name_H-M    'P1'
_symmetry_Int_Tables_number       1
loop_
_symmetry_equiv_pos_as_xyz
  x,y,z
_cell_length_a                    17.3747
_cell_length_b                    37.0301
_cell_length_c                    67.7589
_cell_angle_alpha                 90.0
_cell_angle_beta                 90.0
_cell_angle_gamma                 90.0
loop_
_atom_site_label
_atom_site_type_symbol
_atom_site_fract_x
_atom_site_fract_y
_atom_site_fract_z
Ce1     Ce     0.5   0.1349   0.3494
Ce2     Ce     0.5   0.8651   0.3494
Ti3     Ti     0.5   0.0   0.2216
Ce4     Ce     0.5   0.1349   0.6506
Ce5     Ce     0.5   0.8651   0.6506
Ti6     Ti     0.5   0.0   0.7784
V7     V     0.5   0.6344   0.4263
V8     V     0.5   0.3656   0.4263
V9     V     0.5   0.6344   0.5737
V10     V     0.5   0.3656   0.5737
Er11     Er     0.5   0.0   0.0739
Er12     Er     0.5   0.0   0.9261
Ce13     Ce     0.0   0.6349   0.8494
Ce14     Ce     0.0   0.3651   0.8494
Ti15     Ti     0.0   0.5   0.7216
Ce16     Ce     0.0   0.6349   0.1506
Ce17     Ce     0.0   0.3651   0.1506
Ti18     Ti     0.0   0.5   0.2784
V19     V     0.0   0.8656   0.9263
V20     V     0.0   0.1344   0.9263
V21     V     0.0   0.8656   0.0737
V22     V     0.0   0.1344   0.0737
Er23     Er     0.0   0.5   0.4261
Er24     Er     0.0   0.5   0.5739
loop_
_geom_bond_atom_site_label_1
_geom_bond_atom_site_label_2
_geom_bond_distance
_geom_bond_site_symmetry_2
_ccdc_geom_bond_type
Ce1     V8    10.008   .     S
Ce1     Ce2    9.989   1_545     S
Ce1     Ti3    9.992   .     S
Ce2     V7    10.008   .     S
Ce2     Ce1    9.989   1_565     S
Ce2     Ti3    9.992   1_565     S
Ti3     Er11    10.011   .     S
Ti3     Ce2    9.992   1_545     S
Ce4     V10    10.008   .     S
Ce4     Ce5    9.989   1_545     S
Ce4     Ti6    9.992   .     S
Ce5     V9    10.008   .     S
Ce5     Ce4    9.989   1_565     S
Ce5     Ti6    9.992   1_565     S
Ti6     Er12    10.011   .     S
Ti6     Ce5    9.992   1_545     S
V7     Er23    10.012   1_655     S
V7     Er23    10.012   .     S
V7     V9    9.988   .     S
V7     V8    9.955   .     S
V8     Er23    10.012   1_655     S
V8     Er23    10.012   .     S
V8     V10    9.988   .     S
V9     Er24    10.012   1_655     S
V9     Er24    10.012   .     S
V9     V10    9.955   .     S
V10     Er24    10.012   1_655     S
V10     Er24    10.012   .     S
Er11     V22    10.012   .     S
Er11     V21    10.012   1_545     S
Er11     V21    10.012   1_645     S
Er11     V22    10.012   1_655     S
Er11     Er12    10.016   1_554     S
Er12     V19    10.012   1_545     S
Er12     V20    10.012   .     S
Er12     V20    10.012   1_655     S
Er12     V19    10.012   1_645     S
Er12     Er11    10.016   1_556     S
Ce13     V19    10.008   .     S
Ce13     Ce14    9.989   .     S
Ce13     Ti15    9.992   .     S
Ce14     V20    10.008   .     S
Ce14     Ti15    9.992   .     S
Ti15     Er24    10.011   .     S
Ce16     V21    10.008   .     S
Ce16     Ce17    9.989   .     S
Ce16     Ti18    9.992   .     S
Ce17     V22    10.008   .     S
Ce17     Ti18    9.992   .     S
Ti18     Er23    10.011   .     S
V19     Er12    10.012   1_565     S
V19     Er12    10.012   1_465     S
V19     V21    9.988   1_556     S
V19     V20    9.955   1_565     S
V20     Er12    10.012   1_455     S
V20     V22    9.988   1_556     S
V20     V19    9.955   1_545     S
V21     Er11    10.012   1_565     S
V21     Er11    10.012   1_465     S
V21     V19    9.988   1_554     S
V21     V22    9.955   1_565     S
V22     Er11    10.012   1_455     S
V22     V20    9.988   1_554     S
V22     V21    9.955   1_545     S
Er23     V8    10.012   1_455     S
Er23     V7    10.012   1_455     S
Er23     Er24    10.016   .     S
Er24     V9    10.012   1_455     S
Er24     V10    10.012   1_455     S
