data_zbj
_audit_creation_date              2020-02-02
_audit_creation_method            'Pymatgen'
_symmetry_space_group_name_H-M    'P1'
_symmetry_Int_Tables_number       1
loop_
_symmetry_equiv_pos_as_xyz
  x,y,z
_cell_length_a                    19.6065
_cell_length_b                    19.6865
_cell_length_c                    19.8464
_cell_angle_alpha                 96.8684
_cell_angle_beta                 94.7042
_cell_angle_gamma                 101.0897
loop_
_atom_site_label
_atom_site_type_symbol
_atom_site_fract_x
_atom_site_fract_y
_atom_site_fract_z
Er1     Er     0.6237   0.0653   0.8013
Er2     Er     0.3763   0.9347   0.1987
Ti3     Ti     0.8518   0.8328   0.1484
Ti4     Ti     0.1482   0.1672   0.8516
V5     V     0.4667   0.458   0.2417
V6     V     0.5333   0.542   0.7583
loop_
_geom_bond_atom_site_label_1
_geom_bond_atom_site_label_2
_geom_bond_distance
_geom_bond_site_symmetry_2
_ccdc_geom_bond_type
Er1     V6    10.032   1_545     S
Er1     Ti4    10.033   1_655     S
Er1     Ti4    10.009   .     S
Er1     V6    10.0   .     S
Er1     Er2    9.934   1_546     S
Er1     Ti3    9.937   1_546     S
Er2     V5    10.032   1_565     S
Er2     Ti3    10.033   1_455     S
Er2     Ti3    10.009   .     S
Er2     V5    10.0   .     S
Er2     Ti4    9.937   1_564     S
Er2     Er1    9.934   1_564     S
Ti3     Er2    10.033   1_655     S
Ti3     Er1    9.937   1_564     S
Ti3     V5    9.951   .     S
Ti3     V6    9.972   1_554     S
Ti4     Er1    10.033   1_455     S
Ti4     Er2    9.937   1_546     S
Ti4     V6    9.951   .     S
Ti4     V5    9.972   1_556     S
V5     V6    10.121   .     S
V5     Er2    10.032   1_545     S
V5     V6    10.076   1_554     S
V5     Ti4    9.972   1_554     S
V6     Er1    10.032   1_565     S
V6     V5    10.076   1_556     S
V6     Ti3    9.972   1_556     S
