data_zbk
_audit_creation_date              2020-02-02
_audit_creation_method            'Pymatgen'
_symmetry_space_group_name_H-M    'P1'
_symmetry_Int_Tables_number       1
loop_
_symmetry_equiv_pos_as_xyz
  x,y,z
_cell_length_a                    16.107
_cell_length_b                    29.9055
_cell_length_c                    51.2629
_cell_angle_alpha                 90.0
_cell_angle_beta                 90.3642
_cell_angle_gamma                 90.0
loop_
_atom_site_label
_atom_site_type_symbol
_atom_site_fract_x
_atom_site_fract_y
_atom_site_fract_z
Er1     Er     0.4416   0.9701   0.4059
Er2     Er     0.5584   0.0299   0.5941
V3     V     0.0573   0.8524   0.5419
V4     V     0.9427   0.1476   0.4581
Ti5     Ti     0.0051   0.8745   0.3476
Ti6     Ti     0.9949   0.1255   0.6524
Er7     Er     0.0584   0.5299   0.5941
Er8     Er     0.9416   0.4701   0.4059
V9     V     0.4427   0.6476   0.4581
V10     V     0.5573   0.3524   0.5419
Ti11     Ti     0.5051   0.3745   0.3476
Ti12     Ti     0.4949   0.6255   0.6524
Er13     Er     0.0584   0.4701   0.0941
Er14     Er     0.9416   0.5299   0.9059
V15     V     0.4427   0.3524   0.9581
V16     V     0.5573   0.6476   0.0419
Ti17     Ti     0.4949   0.3745   0.1524
Ti18     Ti     0.5051   0.6255   0.8476
Er19     Er     0.5584   0.9701   0.0941
Er20     Er     0.4416   0.0299   0.9059
V21     V     0.9427   0.8524   0.9581
V22     V     0.0573   0.1476   0.0419
Ti23     Ti     0.9949   0.8745   0.1524
Ti24     Ti     0.0051   0.1255   0.8476
loop_
_geom_bond_atom_site_label_1
_geom_bond_atom_site_label_2
_geom_bond_distance
_geom_bond_site_symmetry_2
_ccdc_geom_bond_type
Er1     Er2    9.976   1_565     S
Er1     V4    10.009   1_465     S
Er1     V3    9.991   .     S
Er1     V9    10.009   .     S
Er1     V4    10.01   1_565     S
Er1     Ti5    9.992   1_655     S
Er2     Er1    9.976   1_545     S
Er2     V3    10.01   1_545     S
Er2     V3    10.009   1_645     S
Er2     V4    9.991   .     S
Er2     V10    10.009   .     S
Er2     Ti6    9.992   1_455     S
V3     Ti5    10.01   .     S
V3     Er2    10.01   1_565     S
V3     Ti6    9.992   1_465     S
V3     Er2    10.009   1_465     S
V3     V4    9.986   1_465     S
V3     Er7    10.009   .     S
V4     Ti5    9.992   1_645     S
V4     Er1    10.009   1_645     S
V4     Ti6    10.01   .     S
V4     Er1    10.01   1_545     S
V4     V3    9.986   1_645     S
V4     Er8    10.009   .     S
Ti5     V4    9.992   1_465     S
Ti5     Er1    9.992   1_455     S
Ti5     Ti23    10.011   1_455     S
Ti6     V3    9.992   1_645     S
Ti6     Er2    9.992   1_655     S
Ti6     Ti24    10.011   1_655     S
Er7     V10    10.009   .     S
Er7     V9    9.991   .     S
Er7     Er8    9.976   1_455     S
Er7     V10    10.01   1_455     S
Er7     Ti12    9.992   1_455     S
Er8     V9    10.01   1_655     S
Er8     Er7    9.976   1_655     S
Er8     V9    10.009   .     S
Er8     V10    9.991   .     S
Er8     Ti11    9.992   1_655     S
V9     Ti12    10.01   .     S
V9     Er8    10.01   1_455     S
V9     V10    9.986   .     S
V9     Ti11    9.992   .     S
V10     Ti12    9.992   .     S
V10     Ti11    10.01   .     S
V10     Er7    10.01   1_655     S
Ti11     Er8    9.992   1_455     S
Ti11     Ti17    10.011   .     S
Ti12     Er7    9.992   1_655     S
Ti12     Ti18    10.011   .     S
Er13     Er14    9.976   1_454     S
Er13     V16    10.009   .     S
Er13     V15    9.991   1_554     S
Er13     V22    10.009   .     S
Er13     V16    10.01   1_455     S
Er13     Ti17    9.992   1_455     S
Er14     Er13    9.976   1_656     S
Er14     V15    10.01   1_655     S
Er14     V15    10.009   .     S
Er14     V16    9.991   1_556     S
Er14     V21    10.009   .     S
Er14     Ti18    9.992   1_655     S
V15     Ti17    10.01   1_556     S
V15     Er13    9.991   1_556     S
V15     Er14    10.01   1_455     S
V15     Ti18    9.992   .     S
V15     V16    9.986   1_556     S
V15     Er20    10.009   .     S
V16     Ti17    9.992   .     S
V16     Ti18    10.01   1_554     S
V16     Er14    9.991   1_554     S
V16     Er13    10.01   1_655     S
V16     V15    9.986   1_554     S
V16     Er19    10.009   .     S
Ti17     V15    10.01   1_554     S
Ti17     Er13    9.992   1_655     S
Ti18     V16    10.01   1_556     S
Ti18     Er14    9.992   1_455     S
Er19     Er20    9.976   1_564     S
Er19     V22    10.01   1_565     S
Er19     V22    10.009   1_665     S
Er19     V21    9.991   1_554     S
Er19     Ti23    9.992   1_455     S
Er20     Er19    9.976   1_546     S
Er20     V21    10.009   1_445     S
Er20     V22    9.991   1_556     S
Er20     V21    10.01   1_545     S
Er20     Ti24    9.992   1_655     S
V21     Ti24    9.992   1_665     S
V21     Er20    10.009   1_665     S
V21     Ti23    10.01   1_556     S
V21     Er19    9.991   1_556     S
V21     Er20    10.01   1_565     S
V21     V22    9.986   1_666     S
V22     Ti24    10.01   1_554     S
V22     Er20    9.991   1_554     S
V22     Er19    10.01   1_545     S
V22     Ti23    9.992   1_445     S
V22     Er19    10.009   1_445     S
V22     V21    9.986   1_444     S
Ti23     V22    9.992   1_665     S
Ti23     V21    10.01   1_554     S
Ti23     Er19    9.992   1_655     S
Ti23     Ti5    10.011   1_655     S
Ti24     V21    9.992   1_445     S
Ti24     V22    10.01   1_556     S
Ti24     Er20    9.992   1_455     S
Ti24     Ti6    10.011   1_455     S
