data_zbn
_audit_creation_date              2020-02-02
_audit_creation_method            'Pymatgen'
_symmetry_space_group_name_H-M    'P1'
_symmetry_Int_Tables_number       1
loop_
_symmetry_equiv_pos_as_xyz
  x,y,z
_cell_length_a                    73.8799
_cell_length_b                    73.8799
_cell_length_c                    27.1488
_cell_angle_alpha                 90.0
_cell_angle_beta                 90.0
_cell_angle_gamma                 90.0
loop_
_atom_site_label
_atom_site_type_symbol
_atom_site_fract_x
_atom_site_fract_y
_atom_site_fract_z
Er1     Er     0.2336   0.3178   0.9286
Er2     Er     0.2664   0.3178   0.5714
Er3     Er     0.2336   0.1822   0.9286
Er4     Er     0.2664   0.1822   0.5714
V5     V     0.3107   0.9675   0.1634
V6     V     0.2175   0.9393   0.9134
V7     V     0.1893   0.0325   0.6634
V8     V     0.2825   0.0607   0.4134
V9     V     0.3107   0.0325   0.8366
V10     V     0.2175   0.0607   0.0866
V11     V     0.1893   0.9675   0.3366
V12     V     0.2825   0.9393   0.5866
V13     V     0.2825   0.5607   0.5866
V14     V     0.1893   0.5325   0.3366
V15     V     0.2175   0.4393   0.0866
V16     V     0.3107   0.4675   0.8366
V17     V     0.2825   0.4393   0.4134
V18     V     0.1893   0.4675   0.6634
V19     V     0.3107   0.5325   0.1634
V20     V     0.2175   0.5607   0.9134
Er21     Er     0.2664   0.8178   0.4286
Er22     Er     0.2336   0.8178   0.0714
Er23     Er     0.2336   0.6822   0.0714
Er24     Er     0.2664   0.6822   0.4286
Er25     Er     0.0678   0.5164   0.1786
Er26     Er     0.0678   0.4836   0.8214
Er27     Er     0.9322   0.5164   0.1786
Er28     Er     0.9322   0.4836   0.8214
Er29     Er     0.4322   0.5164   0.3214
Er30     Er     0.4322   0.4836   0.6786
Er31     Er     0.5678   0.5164   0.3214
Er32     Er     0.5678   0.4836   0.6786
Er33     Er     0.7664   0.3178   0.9286
Er34     Er     0.7336   0.3178   0.5714
Er35     Er     0.7664   0.1822   0.9286
Er36     Er     0.7336   0.1822   0.5714
Er37     Er     0.4322   0.9836   0.3214
Er38     Er     0.4322   0.0164   0.6786
Er39     Er     0.5678   0.9836   0.3214
Er40     Er     0.5678   0.0164   0.6786
Er41     Er     0.0678   0.9836   0.1786
Er42     Er     0.0678   0.0164   0.8214
Er43     Er     0.9322   0.9836   0.1786
Er44     Er     0.9322   0.0164   0.8214
V45     V     0.7825   0.9393   0.9134
V46     V     0.6893   0.9675   0.1634
V47     V     0.8107   0.0325   0.6634
V48     V     0.7175   0.0607   0.4134
V49     V     0.8107   0.9675   0.3366
V50     V     0.7825   0.0607   0.0866
V51     V     0.6893   0.0325   0.8366
V52     V     0.7175   0.9393   0.5866
V53     V     0.8107   0.5325   0.3366
V54     V     0.7175   0.5607   0.5866
V55     V     0.7825   0.4393   0.0866
V56     V     0.6893   0.4675   0.8366
V57     V     0.7825   0.5607   0.9134
V58     V     0.6893   0.5325   0.1634
V59     V     0.7175   0.4393   0.4134
V60     V     0.8107   0.4675   0.6634
Er61     Er     0.7336   0.8178   0.4286
Er62     Er     0.7664   0.8178   0.0714
Er63     Er     0.7336   0.6822   0.4286
Er64     Er     0.7664   0.6822   0.0714
loop_
_geom_bond_atom_site_label_1
_geom_bond_atom_site_label_2
_geom_bond_distance
_geom_bond_site_symmetry_2
_ccdc_geom_bond_type
Er1     Er3    10.015   .     S
Er1     V15    10.02   1_556     S
Er1     Er2    9.996   .     S
Er2     Er4    10.015   .     S
Er2     V17    10.02   .     S
Er3     V10    10.02   1_556     S
Er3     Er4    9.996   .     S
Er4     V8    10.02   .     S
V5     V11    10.128   .     S
V5     Er37    10.02   .     S
V5     V8    9.89   1_565     S
V5     V6    9.89   1_554     S
V5     V10    9.956   1_565     S
V5     V9    10.086   1_564     S
V6     V10    10.128   1_566     S
V6     Er22    10.02   1_556     S
V6     V5    9.89   1_556     S
V6     V7    9.89   1_565     S
V6     V9    9.956   1_565     S
V6     V12    10.086   .     S
V7     V9    10.128   .     S
V7     Er42    10.02   .     S
V7     V6    9.89   1_545     S
V7     V8    9.89   .     S
V7     V12    9.956   1_545     S
V7     V11    10.086   1_545     S
V8     V12    10.128   1_545     S
V8     V5    9.89   1_545     S
V8     V11    9.956   1_545     S
V8     V10    10.086   .     S
V9     Er38    10.02   .     S
V9     V12    9.89   1_545     S
V9     V10    9.89   1_556     S
V9     V6    9.956   1_545     S
V9     V5    10.086   1_546     S
V10     V6    10.128   1_544     S
V10     Er3    10.02   1_554     S
V10     V9    9.89   1_554     S
V10     V11    9.89   1_545     S
V10     V5    9.956   1_545     S
V11     Er41    10.02   .     S
V11     V10    9.89   1_565     S
V11     V12    9.89   .     S
V11     V8    9.956   1_565     S
V11     V7    10.086   1_565     S
V12     V8    10.128   1_565     S
V12     Er21    10.02   .     S
V12     V9    9.89   1_565     S
V12     V7    9.956   1_565     S
V13     V17    10.128   .     S
V13     Er24    10.02   .     S
V13     V14    9.89   .     S
V13     V16    9.89   .     S
V13     V18    9.956   .     S
V13     V20    10.086   .     S
V14     V19    10.128   .     S
V14     Er25    10.02   .     S
V14     V15    9.89   .     S
V14     V17    9.956   .     S
V14     V18    10.086   .     S
V15     V20    10.128   1_554     S
V15     Er1    10.02   1_554     S
V15     V16    9.89   1_554     S
V15     V19    9.956   .     S
V15     V17    10.086   .     S
V16     V18    10.128   .     S
V16     Er30    10.02   .     S
V16     V15    9.89   1_556     S
V16     V20    9.956   .     S
V16     V19    10.086   1_556     S
V17     V19    9.89   .     S
V17     V18    9.89   .     S
V18     Er26    10.02   .     S
V18     V20    9.89   .     S
V19     Er29    10.02   .     S
V19     V20    9.89   1_554     S
V19     V16    10.086   1_554     S
V20     V15    10.128   1_556     S
V20     Er23    10.02   1_556     S
V20     V19    9.89   1_556     S
Er21     Er24    10.015   .     S
Er21     Er22    9.996   .     S
Er22     Er23    10.015   .     S
Er22     V6    10.02   1_554     S
Er23     V20    10.02   1_554     S
Er23     Er24    9.996   .     S
Er25     Er27    10.015   1_455     S
Er25     Er26    9.996   1_554     S
Er26     Er28    10.015   1_455     S
Er26     Er25    9.996   1_556     S
Er27     Er25    10.015   1_655     S
Er27     V53    10.02   .     S
Er27     Er28    9.996   1_554     S
Er28     Er26    10.015   1_655     S
Er28     V60    10.02   .     S
Er28     Er27    9.996   1_556     S
Er29     Er31    10.015   .     S
Er29     Er30    9.996   .     S
Er30     Er32    10.015   .     S
Er31     V58    10.02   .     S
Er31     Er32    9.996   .     S
Er32     V56    10.02   .     S
Er33     Er35    10.015   .     S
Er33     V55    10.02   1_556     S
Er33     Er34    9.996   .     S
Er34     Er36    10.015   .     S
Er34     V59    10.02   .     S
Er35     V50    10.02   1_556     S
Er35     Er36    9.996   .     S
Er36     V48    10.02   .     S
Er37     Er39    10.015   .     S
Er37     Er38    9.996   1_565     S
Er38     Er40    10.015   .     S
Er38     Er37    9.996   1_545     S
Er39     V46    10.02   .     S
Er39     Er40    9.996   1_565     S
Er40     V51    10.02   .     S
Er40     Er39    9.996   1_545     S
Er41     Er43    10.015   1_455     S
Er41     Er42    9.996   1_564     S
Er42     Er44    10.015   1_455     S
Er42     Er41    9.996   1_546     S
Er43     Er41    10.015   1_655     S
Er43     V49    10.02   .     S
Er43     Er44    9.996   1_564     S
Er44     Er42    10.015   1_655     S
Er44     V47    10.02   .     S
Er44     Er43    9.996   1_546     S
V45     V50    10.128   1_566     S
V45     Er62    10.02   1_556     S
V45     V46    9.89   1_556     S
V45     V47    9.89   1_565     S
V45     V51    9.956   1_565     S
V45     V52    10.086   .     S
V46     V49    10.128   .     S
V46     V45    9.89   1_554     S
V46     V48    9.89   1_565     S
V46     V50    9.956   1_565     S
V46     V51    10.086   1_564     S
V47     V51    10.128   .     S
V47     V45    9.89   1_545     S
V47     V48    9.89   .     S
V47     V52    9.956   1_545     S
V47     V49    10.086   1_545     S
V48     V52    10.128   1_545     S
V48     V46    9.89   1_545     S
V48     V49    9.956   1_545     S
V48     V50    10.086   .     S
V49     V50    9.89   1_565     S
V49     V52    9.89   .     S
V49     V48    9.956   1_565     S
V49     V47    10.086   1_565     S
V50     V45    10.128   1_544     S
V50     Er35    10.02   1_554     S
V50     V49    9.89   1_545     S
V50     V51    9.89   1_554     S
V50     V46    9.956   1_545     S
V51     V52    9.89   1_545     S
V51     V50    9.89   1_556     S
V51     V45    9.956   1_545     S
V51     V46    10.086   1_546     S
V52     V48    10.128   1_565     S
V52     Er61    10.02   .     S
V52     V51    9.89   1_565     S
V52     V47    9.956   1_565     S
V53     V58    10.128   .     S
V53     V54    9.89   .     S
V53     V55    9.89   .     S
V53     V59    9.956   .     S
V53     V60    10.086   .     S
V54     V59    10.128   .     S
V54     Er63    10.02   .     S
V54     V56    9.89   .     S
V54     V60    9.956   .     S
V54     V57    10.086   .     S
V55     V57    10.128   1_554     S
V55     Er33    10.02   1_554     S
V55     V56    9.89   1_554     S
V55     V58    9.956   .     S
V55     V59    10.086   .     S
V56     V60    10.128   .     S
V56     V55    9.89   1_556     S
V56     V57    9.956   .     S
V56     V58    10.086   1_556     S
V57     V55    10.128   1_556     S
V57     Er64    10.02   1_556     S
V57     V58    9.89   1_556     S
V57     V60    9.89   .     S
V58     V57    9.89   1_554     S
V58     V59    9.89   .     S
V58     V56    10.086   1_554     S
V59     V60    9.89   .     S
Er61     Er63    10.015   .     S
Er61     Er62    9.996   .     S
Er62     Er64    10.015   .     S
Er62     V45    10.02   1_554     S
Er63     Er64    9.996   .     S
Er64     V57    10.02   1_554     S
