data_zbr
_audit_creation_date              2020-02-02
_audit_creation_method            'Pymatgen'
_symmetry_space_group_name_H-M    'P1'
_symmetry_Int_Tables_number       1
loop_
_symmetry_equiv_pos_as_xyz
  x,y,z
_cell_length_a                    63.5291
_cell_length_b                    19.9999
_cell_length_c                    61.2939
_cell_angle_alpha                 90.0
_cell_angle_beta                 90.0
_cell_angle_gamma                 90.0
loop_
_atom_site_label
_atom_site_type_symbol
_atom_site_fract_x
_atom_site_fract_y
_atom_site_fract_z
Er1     Er     0.8074   0.5   0.1942
Er2     Er     0.6926   0.5   0.3058
Er3     Er     0.8074   0.0   0.1942
Er4     Er     0.6926   0.0   0.3058
Er5     Er     0.1926   0.5   0.1942
Er6     Er     0.3074   0.5   0.3058
Er7     Er     0.1926   0.0   0.1942
Er8     Er     0.3074   0.0   0.3058
V9     V     0.4213   0.0   0.5816
V10     V     0.5787   0.0   0.5816
V11     V     0.4213   0.0   0.4184
V12     V     0.5787   0.0   0.4184
V13     V     0.4213   0.5   0.5816
V14     V     0.5787   0.5   0.5816
V15     V     0.4213   0.5   0.4184
V16     V     0.5787   0.5   0.4184
Er17     Er     0.6926   0.0   0.6942
Er18     Er     0.8074   0.0   0.8058
Er19     Er     0.6926   0.5   0.6942
Er20     Er     0.8074   0.5   0.8058
Er21     Er     0.3074   0.5   0.6942
Er22     Er     0.1926   0.5   0.8058
Er23     Er     0.3074   0.0   0.6942
Er24     Er     0.1926   0.0   0.8058
V25     V     0.0787   0.5   0.9184
V26     V     0.9213   0.5   0.9184
V27     V     0.0787   0.5   0.0816
V28     V     0.9213   0.5   0.0816
V29     V     0.0787   0.0   0.9184
V30     V     0.9213   0.0   0.9184
V31     V     0.0787   0.0   0.0816
V32     V     0.9213   0.0   0.0816
loop_
_geom_bond_atom_site_label_1
_geom_bond_atom_site_label_2
_geom_bond_distance
_geom_bond_site_symmetry_2
_ccdc_geom_bond_type
Er1     Er2    10.0   .     S
Er1     Er3    10.0   1_565     S
Er1     V28    10.0   .     S
Er2     Er4    10.0   1_565     S
Er2     V16    10.0   .     S
Er3     Er4    10.0   .     S
Er3     Er1    10.0   1_545     S
Er3     V32    10.0   .     S
Er4     Er2    10.0   1_545     S
Er4     V12    10.0   .     S
Er5     Er6    10.0   .     S
Er5     Er7    10.0   1_565     S
Er5     V27    10.0   .     S
Er6     Er8    10.0   1_565     S
Er6     V15    10.0   .     S
Er7     Er8    10.0   .     S
Er7     Er5    10.0   1_545     S
Er7     V31    10.0   .     S
Er8     Er6    10.0   1_545     S
Er8     V11    10.0   .     S
V9     V10    9.999   .     S
V9     V11    9.999   .     S
V9     V13    10.0   1_545     S
V9     V13    10.0   .     S
V9     Er23    10.0   .     S
V10     V12    9.999   .     S
V10     V14    10.0   1_545     S
V10     V14    10.0   .     S
V10     Er17    10.0   .     S
V11     V12    9.999   .     S
V11     V15    10.0   1_545     S
V11     V15    10.0   .     S
V12     V16    10.0   1_545     S
V12     V16    10.0   .     S
V13     V9    10.0   1_565     S
V13     V14    9.999   .     S
V13     V15    9.999   .     S
V13     Er21    10.0   .     S
V14     V10    10.0   1_565     S
V14     V16    9.999   .     S
V14     Er19    10.0   .     S
V15     V11    10.0   1_565     S
V15     V16    9.999   .     S
V16     V12    10.0   1_565     S
Er17     Er18    10.0   .     S
Er17     Er19    10.0   .     S
Er18     Er20    10.0   .     S
Er18     V30    10.0   .     S
Er19     Er20    10.0   .     S
Er20     V26    10.0   .     S
Er21     Er22    10.0   .     S
Er21     Er23    10.0   .     S
Er22     Er24    10.0   .     S
Er22     V25    10.0   .     S
Er23     Er24    10.0   .     S
Er24     V29    10.0   .     S
V25     V26    9.999   1_455     S
V25     V27    9.999   1_556     S
V25     V29    10.0   1_565     S
V25     V29    10.0   .     S
V26     V25    9.999   1_655     S
V26     V28    9.999   1_556     S
V26     V30    10.0   1_565     S
V26     V30    10.0   .     S
V27     V28    9.999   1_455     S
V27     V25    9.999   1_554     S
V27     V31    10.0   1_565     S
V27     V31    10.0   .     S
V28     V27    9.999   1_655     S
V28     V26    9.999   1_554     S
V28     V32    10.0   1_565     S
V28     V32    10.0   .     S
V29     V30    9.999   1_455     S
V29     V31    9.999   1_556     S
V29     V25    10.0   1_545     S
V30     V29    9.999   1_655     S
V30     V32    9.999   1_556     S
V30     V26    10.0   1_545     S
V31     V32    9.999   1_455     S
V31     V29    9.999   1_554     S
V31     V27    10.0   1_545     S
V32     V31    9.999   1_655     S
V32     V30    9.999   1_554     S
V32     V28    10.0   1_545     S
