data_zbw
_audit_creation_date              2020-02-02
_audit_creation_method            'Pymatgen'
_symmetry_space_group_name_H-M    'P1'
_symmetry_Int_Tables_number       1
loop_
_symmetry_equiv_pos_as_xyz
  x,y,z
_cell_length_a                    29.5957
_cell_length_b                    30.0139
_cell_length_c                    21.024
_cell_angle_alpha                 90.0
_cell_angle_beta                 107.9732
_cell_angle_gamma                 90.0
loop_
_atom_site_label
_atom_site_type_symbol
_atom_site_fract_x
_atom_site_fract_y
_atom_site_fract_z
Er1     Er     0.5474   0.2154   0.5657
Er2     Er     0.4526   0.2154   0.9343
V3     V     0.3313   0.035   0.1858
V4     V     0.6687   0.035   0.3142
Er5     Er     0.5474   0.7846   0.0657
Er6     Er     0.4526   0.7846   0.4343
V7     V     0.3313   0.965   0.6858
V8     V     0.6687   0.965   0.8142
Er9     Er     0.9526   0.2846   0.4343
Er10     Er     0.0474   0.2846   0.0657
V11     V     0.8313   0.465   0.6858
V12     V     0.1687   0.465   0.8142
Er13     Er     0.0474   0.7154   0.5657
Er14     Er     0.9526   0.7154   0.9343
V15     V     0.1687   0.535   0.3142
V16     V     0.8313   0.535   0.1858
loop_
_geom_bond_atom_site_label_1
_geom_bond_atom_site_label_2
_geom_bond_distance
_geom_bond_site_symmetry_2
_ccdc_geom_bond_type
Er1     V8    9.224   1_545     S
Er1     V4    9.051   .     S
Er1     Er2    9.017   .     S
Er1     V3    10.125   .     S
Er1     V11    10.954   .     S
Er1     V7    10.665   1_545     S
Er2     V7    9.224   1_545     S
Er2     V3    9.051   1_556     S
Er2     V4    10.125   1_556     S
Er2     V12    10.954   .     S
Er2     V8    10.665   1_545     S
V3     Er6    9.224   1_545     S
V3     Er2    9.051   1_554     S
V3     Er10    10.954   .     S
V3     V4    9.507   .     S
V3     Er5    10.665   1_545     S
V3     V7    10.72   1_544     S
V3     V7    10.72   1_545     S
V4     Er5    9.224   1_545     S
V4     Er2    10.125   1_554     S
V4     Er9    10.954   .     S
V4     Er6    10.665   1_545     S
V4     V8    10.72   1_545     S
V4     V8    10.72   1_544     S
Er5     V4    9.224   1_565     S
Er5     V8    9.051   1_554     S
Er5     Er6    9.017   .     S
Er5     V7    10.125   1_554     S
Er5     V16    10.954   .     S
Er5     V3    10.665   1_565     S
Er6     V3    9.224   1_565     S
Er6     V7    9.051   .     S
Er6     V8    10.125   .     S
Er6     V15    10.954   .     S
Er6     V4    10.665   1_565     S
V7     Er2    9.224   1_565     S
V7     Er5    10.125   1_556     S
V7     Er13    10.954   .     S
V7     V8    9.507   .     S
V7     Er1    10.665   1_565     S
V7     V3    10.72   1_566     S
V7     V3    10.72   1_565     S
V8     Er1    9.224   1_565     S
V8     Er5    9.051   1_556     S
V8     Er14    10.954   .     S
V8     Er2    10.665   1_565     S
V8     V4    10.72   1_565     S
V8     V4    10.72   1_566     S
Er9     V16    9.224   .     S
Er9     V11    9.051   .     S
Er9     Er10    9.017   1_655     S
Er9     V12    10.125   1_655     S
Er9     V15    10.665   1_655     S
Er10     V15    9.224   .     S
Er10     V12    9.051   1_554     S
Er10     Er9    9.017   1_455     S
Er10     V11    10.125   1_454     S
Er10     V16    10.665   1_455     S
V11     Er14    9.224   .     S
V11     Er10    10.125   1_656     S
V11     V12    9.507   1_655     S
V11     Er13    10.665   1_655     S
V11     V16    10.72   .     S
V11     V16    10.72   1_556     S
V12     Er13    9.224   .     S
V12     Er10    9.051   1_556     S
V12     Er9    10.125   1_455     S
V12     V11    9.507   1_455     S
V12     Er14    10.665   1_455     S
V12     V15    10.72   1_556     S
V12     V15    10.72   .     S
Er13     V15    9.051   .     S
Er13     Er14    9.017   1_455     S
Er13     V16    10.125   1_455     S
Er13     V11    10.665   1_455     S
Er14     V16    9.051   1_556     S
Er14     Er13    9.017   1_655     S
Er14     V15    10.125   1_656     S
Er14     V12    10.665   1_655     S
V15     Er14    10.125   1_454     S
V15     V16    9.507   1_455     S
V15     Er9    10.665   1_455     S
V15     V12    10.72   1_554     S
V16     Er14    9.051   1_554     S
V16     Er13    10.125   1_655     S
V16     V15    9.507   1_655     S
V16     Er10    10.665   1_655     S
V16     V11    10.72   1_554     S
