data_zca
_audit_creation_date              2020-02-02
_audit_creation_method            'Pymatgen'
_symmetry_space_group_name_H-M    'P1'
_symmetry_Int_Tables_number       1
loop_
_symmetry_equiv_pos_as_xyz
  x,y,z
_cell_length_a                    16.9821
_cell_length_b                    27.3546
_cell_length_c                    36.5183
_cell_angle_alpha                 90.0
_cell_angle_beta                 97.0452
_cell_angle_gamma                 90.0
loop_
_atom_site_label
_atom_site_type_symbol
_atom_site_fract_x
_atom_site_fract_y
_atom_site_fract_z
Ti1     Ti     0.6287   0.6536   0.0521
Er2     Er     0.1656   0.7118   0.1904
V3     V     0.7317   0.9701   0.9303
Ti4     Ti     0.3713   0.3465   0.9479
Er5     Er     0.8344   0.2882   0.8096
V6     V     0.2683   0.0299   0.0697
Ti7     Ti     0.8713   0.1536   0.4479
Er8     Er     0.3344   0.2118   0.3096
V9     V     0.7683   0.4701   0.5697
Ti10     Ti     0.1287   0.8464   0.5521
Er11     Er     0.6656   0.7882   0.6904
V12     V     0.2317   0.5299   0.4303
loop_
_geom_bond_atom_site_label_1
_geom_bond_atom_site_label_2
_geom_bond_distance
_geom_bond_site_symmetry_2
_ccdc_geom_bond_type
Ti1     Er2    9.98   .     S
Ti1     V3    9.988   1_554     S
Ti1     Er2    9.994   1_655     S
Ti1     Ti4    10.004   1_554     S
Er2     Ti1    9.994   1_455     S
Er2     V6    10.003   1_565     S
Er2     V12    10.019   .     S
V3     Ti1    9.988   1_556     S
V3     Er5    10.003   1_565     S
V3     V6    10.012   1_666     S
V3     V6    10.018   1_566     S
V3     Er11    10.019   .     S
Ti4     Er5    9.98   .     S
Ti4     V6    9.988   1_556     S
Ti4     Er5    9.994   1_455     S
Ti4     Ti1    10.004   1_556     S
Er5     Ti4    9.994   1_655     S
Er5     V3    10.003   1_545     S
Er5     V9    10.019   .     S
V6     Ti4    9.988   1_554     S
V6     Er2    10.003   1_545     S
V6     V3    10.012   1_444     S
V6     V3    10.018   1_544     S
V6     Er8    10.019   .     S
Ti7     Er8    9.98   1_655     S
Ti7     V9    9.988   .     S
Ti7     Er8    9.994   .     S
Ti7     Ti10    10.004   1_645     S
Er8     Ti7    9.98   1_455     S
Er8     V12    10.003   .     S
V9     Er11    10.003   .     S
V9     V12    10.012   .     S
V9     V12    10.018   1_655     S
Ti10     Er11    9.98   1_455     S
Ti10     V12    9.988   .     S
Ti10     Er11    9.994   .     S
Ti10     Ti7    10.004   1_465     S
Er11     Ti10    9.98   1_655     S
V12     V9    10.018   1_455     S
