data_zcb
_audit_creation_date              2020-02-02
_audit_creation_method            'Pymatgen'
_symmetry_space_group_name_H-M    'P1'
_symmetry_Int_Tables_number       1
loop_
_symmetry_equiv_pos_as_xyz
  x,y,z
_cell_length_a                    19.1716
_cell_length_b                    42.1221
_cell_length_c                    38.1985
_cell_angle_alpha                 90.0
_cell_angle_beta                 96.0467
_cell_angle_gamma                 90.0
loop_
_atom_site_label
_atom_site_type_symbol
_atom_site_fract_x
_atom_site_fract_y
_atom_site_fract_z
V1     V     0.0   0.5786   0.25
Er2     Er     0.0504   0.3722   0.1248
Er3     Er     0.9496   0.3722   0.3752
Er4     Er     0.9496   0.6278   0.8752
Er5     Er     0.0504   0.6278   0.6248
Ce6     Ce     0.3006   0.9573   0.1134
H7     H     0.1895   0.0199   0.3524
H8     H     0.8105   0.0199   0.1476
S9     S     0.0   0.8172   0.25
Ce10     Ce     0.6994   0.9573   0.3867
Ti11     Ti     0.1016   0.8395   0.5111
Ti12     Ti     0.8984   0.8395   0.9889
Ce13     Ce     0.6994   0.0427   0.8866
H14     H     0.8105   0.9801   0.6476
H15     H     0.1895   0.9801   0.8524
S16     S     0.0   0.1828   0.75
Ce17     Ce     0.3006   0.0427   0.6133
Ti18     Ti     0.8984   0.1605   0.4889
Ti19     Ti     0.1016   0.1605   0.0111
V20     V     0.0   0.4214   0.75
loop_
_geom_bond_atom_site_label_1
_geom_bond_atom_site_label_2
_geom_bond_distance
_geom_bond_site_symmetry_2
_ccdc_geom_bond_type
V1     Er2    10.016   .     S
V1     Er3    10.016   1_455     S
V1     S9    10.051   .     S
Er2     Er3    9.955   1_455     S
Er2     Ti19    10.015   .     S
Er3     Er2    9.955   1_655     S
Er3     V1    10.016   1_655     S
Er3     Ti18    10.015   .     S
Er4     Er5    9.955   1_655     S
Er4     V20    10.016   1_655     S
Er4     Ti12    10.015   .     S
Er5     Er4    9.955   1_455     S
Er5     V20    10.016   .     S
Er5     Ti11    10.015   .     S
Ce6     H7    9.946   1_565     S
Ce6     Ti12    9.948   1_454     S
Ce6     Ti19    9.995   1_565     S
Ce6     H8    9.977   1_465     S
Ce6     H15    10.018   1_554     S
Ce6     S9    10.081   .     S
Ce6     H8    10.076   1_565     S
H7     Ce6    9.946   1_545     S
H7     Ti11    9.974   1_545     S
H7     Ce10    9.977   1_445     S
H7     Ti18    9.979   1_455     S
H7     Ce17    10.018   .     S
H7     H8    10.1   1_455     S
H7     Ce10    10.076   1_545     S
H7     S9    9.919   1_545     S
H8     Ce10    9.946   1_545     S
H8     Ti19    9.979   1_655     S
H8     Ti12    9.974   1_544     S
H8     Ce6    9.977   1_645     S
H8     Ce13    10.018   1_554     S
H8     H7    10.1   1_655     S
H8     Ce6    10.076   1_545     S
H8     S9    9.919   1_645     S
S9     Ti11    10.002   .     S
S9     Ti12    10.002   1_454     S
S9     Ce10    10.081   1_455     S
S9     H7    9.919   1_565     S
S9     H8    9.919   1_465     S
Ce10     H8    9.946   1_565     S
Ce10     Ti11    9.948   1_655     S
Ce10     H7    9.977   1_665     S
Ce10     Ti18    9.995   1_565     S
Ce10     H14    10.018   .     S
Ce10     S9    10.081   1_655     S
Ce10     H7    10.076   1_565     S
Ti11     Ce10    9.948   1_455     S
Ti11     H7    9.974   1_565     S
Ti11     Ce17    9.995   1_565     S
Ti11     H14    9.979   1_455     S
Ti12     Ce6    9.948   1_656     S
Ti12     Ce13    9.995   1_565     S
Ti12     H15    9.979   1_655     S
Ti12     H8    9.974   1_566     S
Ti12     S9    10.002   1_656     S
Ce13     H14    9.946   1_545     S
Ce13     Ti19    9.948   1_656     S
Ce13     Ti12    9.995   1_545     S
Ce13     H15    9.977   1_645     S
Ce13     H8    10.018   1_556     S
Ce13     S16    10.081   1_655     S
Ce13     H15    10.076   1_545     S
H14     Ce13    9.946   1_565     S
H14     Ti18    9.974   1_565     S
H14     Ce17    9.977   1_665     S
H14     Ti11    9.979   1_655     S
H14     H15    10.1   1_655     S
H14     Ce17    10.076   1_565     S
H14     S16    9.919   1_665     S
H15     Ce17    9.946   1_565     S
H15     Ti12    9.979   1_455     S
H15     Ti19    9.974   1_566     S
H15     Ce13    9.977   1_465     S
H15     Ce6    10.018   1_556     S
H15     H14    10.1   1_455     S
H15     Ce13    10.076   1_565     S
H15     S16    9.919   1_565     S
S16     Ti19    10.002   1_556     S
S16     Ti18    10.002   1_455     S
S16     V20    10.051   .     S
S16     Ce13    10.081   1_455     S
S16     Ce17    10.081   .     S
S16     H14    9.919   1_445     S
S16     H15    9.919   1_545     S
Ce17     H15    9.946   1_545     S
Ce17     Ti18    9.948   1_455     S
Ce17     H14    9.977   1_445     S
Ce17     Ti11    9.995   1_545     S
Ce17     H14    10.076   1_545     S
Ti18     Ce17    9.948   1_655     S
Ti18     H14    9.974   1_545     S
Ti18     H7    9.979   1_655     S
Ti18     Ce10    9.995   1_545     S
Ti18     S16    10.002   1_655     S
Ti19     Ce13    9.948   1_454     S
Ti19     H8    9.979   1_455     S
Ti19     Ce6    9.995   1_545     S
Ti19     H15    9.974   1_544     S
Ti19     S16    10.002   1_554     S
V20     Er4    10.016   1_455     S
