data_zea
_audit_creation_date              2020-02-02
_audit_creation_method            'Pymatgen'
_symmetry_space_group_name_H-M    'P1'
_symmetry_Int_Tables_number       1
loop_
_symmetry_equiv_pos_as_xyz
  x,y,z
_cell_length_a                    52.0195
_cell_length_b                    52.0195
_cell_length_c                    60.2398
_cell_angle_alpha                 90.0
_cell_angle_beta                 90.0
_cell_angle_gamma                 90.0
loop_
_atom_site_label
_atom_site_type_symbol
_atom_site_fract_x
_atom_site_fract_y
_atom_site_fract_z
V1     V     0.4858   0.8151   0.2063
Er2     Er     0.7289   0.8648   0.583
Er3     Er     0.7289   0.8648   0.417
Ti4     Ti     0.6606   0.7966   0.7266
Ti5     Ti     0.6606   0.7966   0.2734
V6     V     0.4858   0.8151   0.7937
Er7     Er     0.8648   0.7289   0.417
Er8     Er     0.8648   0.7289   0.583
Ti9     Ti     0.7966   0.6606   0.7266
Ti10     Ti     0.7966   0.6606   0.2734
V11     V     0.8151   0.4858   0.2063
V12     V     0.8151   0.4858   0.7937
Er13     Er     0.7711   0.3648   0.917
Er14     Er     0.7711   0.3648   0.083
Ti15     Ti     0.8394   0.2966   0.7734
Ti16     Ti     0.8394   0.2966   0.2266
V17     V     0.0142   0.3151   0.2937
V18     V     0.0142   0.3151   0.7063
Er19     Er     0.6352   0.2289   0.083
Er20     Er     0.6352   0.2289   0.917
Ti21     Ti     0.7034   0.1606   0.7734
Ti22     Ti     0.7034   0.1606   0.2266
V23     V     0.6849   0.9858   0.2937
V24     V     0.6849   0.9858   0.7063
Ce25     Ce     0.5   0.0   0.25
Ce26     Ce     0.5   0.0   0.75
Er27     Er     0.2711   0.1352   0.583
Er28     Er     0.2711   0.1352   0.417
Ti29     Ti     0.3394   0.2034   0.7266
Ti30     Ti     0.3394   0.2034   0.2734
V31     V     0.5142   0.1849   0.7937
V32     V     0.5142   0.1849   0.2063
Er33     Er     0.1352   0.2711   0.417
Er34     Er     0.1352   0.2711   0.583
Ti35     Ti     0.2034   0.3394   0.7266
Ti36     Ti     0.2034   0.3394   0.2734
V37     V     0.1849   0.5142   0.2063
V38     V     0.1849   0.5142   0.7937
Er39     Er     0.3648   0.7711   0.083
Er40     Er     0.3648   0.7711   0.917
Ti41     Ti     0.2966   0.8394   0.2266
Ti42     Ti     0.2966   0.8394   0.7734
V43     V     0.3151   0.0142   0.2937
V44     V     0.3151   0.0142   0.7063
Er45     Er     0.2289   0.6352   0.917
Er46     Er     0.2289   0.6352   0.083
Ti47     Ti     0.1606   0.7034   0.7734
Ti48     Ti     0.1606   0.7034   0.2266
V49     V     0.9858   0.6849   0.2937
V50     V     0.9858   0.6849   0.7063
Ce51     Ce     0.0   0.5   0.25
Ce52     Ce     0.0   0.5   0.75
loop_
_geom_bond_atom_site_label_1
_geom_bond_atom_site_label_2
_geom_bond_distance
_geom_bond_site_symmetry_2
_ccdc_geom_bond_type
V1     Ti5    10.0   .     S
V1     Ce25    10.0   1_565     S
V1     Ti41    10.0   .     S
V1     Er39    10.0   .     S
Er2     Ti4    10.0   .     S
Er2     V24    10.0   .     S
Er2     Er3    10.0   .     S
Er2     Er8    10.0   .     S
Er3     Ti5    10.0   .     S
Er3     V23    10.0   .     S
Er3     Er7    10.0   .     S
Ti4     V24    10.0   .     S
Ti4     V6    10.0   .     S
Ti4     Ti9    10.0   .     S
Ti5     V23    10.0   .     S
Ti5     Ti10    10.0   .     S
V6     Ce26    10.0   1_565     S
V6     Ti42    10.0   .     S
V6     Er40    10.0   .     S
Er7     Ti10    10.0   .     S
Er7     V49    10.0   .     S
Er7     Er8    10.0   .     S
Er8     Ti9    10.0   .     S
Er8     V50    10.0   .     S
Ti9     V50    10.0   .     S
Ti9     V12    10.0   .     S
Ti10     V49    10.0   .     S
Ti10     V11    10.0   .     S
V11     Ce51    10.0   1_655     S
V11     Ti16    10.0   .     S
V11     Er14    10.0   .     S
V12     Ce52    10.0   1_655     S
V12     Ti15    10.0   .     S
V12     Er13    10.0   .     S
Er13     Ti15    10.0   .     S
Er13     Er14    10.0   1_556     S
Er13     Er20    10.0   .     S
Er14     Ti16    10.0   .     S
Er14     Er13    10.0   1_554     S
Er14     Er19    10.0   .     S
Ti15     V18    10.0   1_655     S
Ti15     Ti21    10.0   .     S
Ti16     V17    10.0   1_655     S
Ti16     Ti22    10.0   .     S
V17     Ti16    10.0   1_455     S
V17     Ce51    10.0   .     S
V17     Ti36    10.0   .     S
V17     Er33    10.0   .     S
V18     Ti15    10.0   1_455     S
V18     Ce52    10.0   .     S
V18     Er34    10.0   .     S
V18     Ti35    10.0   .     S
Er19     Ti22    10.0   .     S
Er19     V32    10.0   .     S
Er19     Er20    10.0   1_554     S
Er20     Ti21    10.0   .     S
Er20     V31    10.0   .     S
Er20     Er19    10.0   1_556     S
Ti21     V31    10.0   .     S
Ti21     V24    10.0   1_545     S
Ti22     V32    10.0   .     S
Ti22     V23    10.0   1_545     S
V23     Ti22    10.0   1_565     S
V23     Ce25    10.0   1_565     S
V24     Ti21    10.0   1_565     S
V24     Ce26    10.0   1_565     S
Ce25     V1    10.0   1_545     S
Ce25     V23    10.0   1_545     S
Ce25     V32    10.0   .     S
Ce25     V43    10.0   .     S
Ce26     V6    10.0   1_545     S
Ce26     V24    10.0   1_545     S
Ce26     V31    10.0   .     S
Ce26     V44    10.0   .     S
Er27     Ti29    10.0   .     S
Er27     V44    10.0   .     S
Er27     Er28    10.0   .     S
Er27     Er34    10.0   .     S
Er28     Ti30    10.0   .     S
Er28     V43    10.0   .     S
Er28     Er33    10.0   .     S
Ti29     V44    10.0   .     S
Ti29     V31    10.0   .     S
Ti29     Ti35    10.0   .     S
Ti30     V43    10.0   .     S
Ti30     V32    10.0   .     S
Ti30     Ti36    10.0   .     S
Er33     Ti36    10.0   .     S
Er33     Er34    10.0   .     S
Er34     Ti35    10.0   .     S
Ti35     V38    10.0   .     S
Ti36     V37    10.0   .     S
V37     Ce51    10.0   .     S
V37     Ti48    10.0   .     S
V37     Er46    10.0   .     S
V38     Ce52    10.0   .     S
V38     Ti47    10.0   .     S
V38     Er45    10.0   .     S
Er39     Ti41    10.0   .     S
Er39     Er40    10.0   1_554     S
Er39     Er46    10.0   .     S
Er40     Ti42    10.0   .     S
Er40     Er39    10.0   1_556     S
Er40     Er45    10.0   .     S
Ti41     V43    10.0   1_565     S
Ti41     Ti48    10.0   .     S
Ti42     V44    10.0   1_565     S
Ti42     Ti47    10.0   .     S
V43     Ti41    10.0   1_545     S
V44     Ti42    10.0   1_545     S
Er45     Ti47    10.0   .     S
Er45     Er46    10.0   1_556     S
Er46     Ti48    10.0   .     S
Er46     Er45    10.0   1_554     S
Ti47     V50    10.0   1_455     S
Ti48     V49    10.0   1_455     S
V49     Ti48    10.0   1_655     S
V49     Ce51    10.0   1_655     S
V50     Ti47    10.0   1_655     S
V50     Ce52    10.0   1_655     S
Ce51     V11    10.0   1_455     S
Ce51     V49    10.0   1_455     S
Ce52     V12    10.0   1_455     S
Ce52     V50    10.0   1_455     S
