data_zeb
_audit_creation_date              2020-02-02
_audit_creation_method            'Pymatgen'
_symmetry_space_group_name_H-M    'P1'
_symmetry_Int_Tables_number       1
loop_
_symmetry_equiv_pos_as_xyz
  x,y,z
_cell_length_a                    35.3361
_cell_length_b                    79.8493
_cell_length_c                    41.3162
_cell_angle_alpha                 90.0
_cell_angle_beta                 90.0
_cell_angle_gamma                 90.0
loop_
_atom_site_label
_atom_site_type_symbol
_atom_site_fract_x
_atom_site_fract_y
_atom_site_fract_z
V1     V     0.1415   0.5814   0.4566
Er2     Er     0.1415   0.5246   0.6723
Er3     Er     0.3585   0.5246   0.8277
V4     V     0.3585   0.5814   0.0434
Ti5     Ti     0.3585   0.6874   0.1723
Ti6     Ti     0.1415   0.6874   0.3277
Er7     Er     0.1415   0.4754   0.3277
V8     V     0.1415   0.4186   0.5434
Er9     Er     0.3585   0.4754   0.1723
V10     V     0.3585   0.4186   0.9566
Ti11     Ti     0.3585   0.3126   0.8277
Ti12     Ti     0.1415   0.3126   0.6723
Er13     Er     0.6415   0.5246   0.8277
V14     V     0.6415   0.5814   0.0434
V15     V     0.8585   0.5814   0.4566
Er16     Er     0.8585   0.5246   0.6723
Ti17     Ti     0.6415   0.6874   0.1723
Ti18     Ti     0.8585   0.6874   0.3277
Ti19     Ti     0.8585   0.3126   0.6723
Ti20     Ti     0.6415   0.3126   0.8277
Er21     Er     0.6415   0.4754   0.1723
V22     V     0.6415   0.4186   0.9566
V23     V     0.8585   0.4186   0.5434
Er24     Er     0.8585   0.4754   0.3277
Ti25     Ti     0.3585   0.8126   0.1723
Ti26     Ti     0.1415   0.8126   0.3277
Er27     Er     0.1415   0.9754   0.6723
V28     V     0.1415   0.9186   0.4566
Er29     Er     0.3585   0.9754   0.8277
V30     V     0.3585   0.9186   0.0434
V31     V     0.1415   0.0814   0.5434
Er32     Er     0.1415   0.0246   0.3277
V33     V     0.3585   0.0814   0.9566
Er34     Er     0.3585   0.0246   0.1723
Ti35     Ti     0.3585   0.1874   0.8277
Ti36     Ti     0.1415   0.1874   0.6723
Ti37     Ti     0.6415   0.8126   0.1723
Ti38     Ti     0.8585   0.8126   0.3277
Er39     Er     0.6415   0.9754   0.8277
V40     V     0.6415   0.9186   0.0434
Er41     Er     0.8585   0.9754   0.6723
V42     V     0.8585   0.9186   0.4566
V43     V     0.6415   0.0814   0.9566
Er44     Er     0.6415   0.0246   0.1723
V45     V     0.8585   0.0814   0.5434
Er46     Er     0.8585   0.0246   0.3277
Ti47     Ti     0.8585   0.1874   0.6723
Ti48     Ti     0.6415   0.1874   0.8277
loop_
_geom_bond_atom_site_label_1
_geom_bond_atom_site_label_2
_geom_bond_distance
_geom_bond_site_symmetry_2
_ccdc_geom_bond_type
V1     Er2    10.0   .     S
V1     Er7    10.0   .     S
V1     Ti6    10.0   .     S
V1     V15    10.0   1_455     S
Er2     Er3    10.0   .     S
Er2     V8    10.0   .     S
Er2     Er16    10.0   1_455     S
Er3     V4    10.0   1_556     S
Er3     V10    10.0   .     S
Er3     Er13    10.0   .     S
V4     Er3    10.0   1_554     S
V4     Er9    10.0   .     S
V4     Ti5    10.0   .     S
V4     V14    10.0   .     S
Ti5     Ti6    10.0   .     S
Ti5     Ti17    10.0   .     S
Ti5     Ti25    10.0   .     S
Ti6     Ti18    10.0   1_455     S
Ti6     Ti26    10.0   .     S
Er7     V8    10.0   .     S
Er7     Er9    10.0   .     S
Er7     Er24    10.0   1_455     S
V8     Ti12    10.0   .     S
V8     V23    10.0   1_455     S
Er9     V10    10.0   1_554     S
Er9     Er21    10.0   .     S
V10     Er9    10.0   1_556     S
V10     Ti11    10.0   .     S
V10     V22    10.0   .     S
Ti11     Ti12    10.0   .     S
Ti11     Ti20    10.0   .     S
Ti11     Ti35    10.0   .     S
Ti12     Ti19    10.0   1_455     S
Ti12     Ti36    10.0   .     S
Er13     V14    10.0   1_556     S
Er13     Er16    10.0   .     S
Er13     V22    10.0   .     S
V14     Er13    10.0   1_554     S
V14     Er21    10.0   .     S
V14     Ti17    10.0   .     S
V15     Er16    10.0   .     S
V15     Er24    10.0   .     S
V15     Ti18    10.0   .     S
V15     V1    10.0   1_655     S
Er16     V23    10.0   .     S
Er16     Er2    10.0   1_655     S
Ti17     Ti18    10.0   .     S
Ti17     Ti37    10.0   .     S
Ti18     Ti6    10.0   1_655     S
Ti18     Ti38    10.0   .     S
Ti19     Ti20    10.0   .     S
Ti19     V23    10.0   .     S
Ti19     Ti12    10.0   1_655     S
Ti19     Ti47    10.0   .     S
Ti20     V22    10.0   .     S
Ti20     Ti48    10.0   .     S
Er21     V22    10.0   1_554     S
Er21     Er24    10.0   .     S
V22     Er21    10.0   1_556     S
V23     Er24    10.0   .     S
V23     V8    10.0   1_655     S
Er24     Er7    10.0   1_655     S
Ti25     Ti26    10.0   .     S
Ti25     V30    10.0   .     S
Ti25     Ti37    10.0   .     S
Ti26     V28    10.0   .     S
Ti26     Ti38    10.0   1_455     S
Er27     V28    10.0   .     S
Er27     Er29    10.0   .     S
Er27     V31    10.0   1_565     S
Er27     Er41    10.0   1_455     S
V28     Er32    10.0   1_565     S
V28     V42    10.0   1_455     S
Er29     V30    10.0   1_556     S
Er29     V33    10.0   1_565     S
Er29     Er39    10.0   .     S
V30     Er29    10.0   1_554     S
V30     Er34    10.0   1_565     S
V30     V40    10.0   .     S
V31     Er32    10.0   .     S
V31     Er27    10.0   1_545     S
V31     Ti36    10.0   .     S
V31     V45    10.0   1_455     S
Er32     Er34    10.0   .     S
Er32     V28    10.0   1_545     S
Er32     Er46    10.0   1_455     S
V33     Er34    10.0   1_556     S
V33     Er29    10.0   1_545     S
V33     Ti35    10.0   .     S
V33     V43    10.0   .     S
Er34     V33    10.0   1_554     S
Er34     V30    10.0   1_545     S
Er34     Er44    10.0   .     S
Ti35     Ti36    10.0   .     S
Ti35     Ti48    10.0   .     S
Ti36     Ti47    10.0   1_455     S
Ti37     Ti38    10.0   .     S
Ti37     V40    10.0   .     S
Ti38     V42    10.0   .     S
Ti38     Ti26    10.0   1_655     S
Er39     V40    10.0   1_556     S
Er39     Er41    10.0   .     S
Er39     V43    10.0   1_565     S
V40     Er39    10.0   1_554     S
V40     Er44    10.0   1_565     S
Er41     V42    10.0   .     S
Er41     V45    10.0   1_565     S
Er41     Er27    10.0   1_655     S
V42     Er46    10.0   1_565     S
V42     V28    10.0   1_655     S
V43     Er39    10.0   1_545     S
V43     Er44    10.0   1_556     S
V43     Ti48    10.0   .     S
Er44     V43    10.0   1_554     S
Er44     Er46    10.0   .     S
Er44     V40    10.0   1_545     S
V45     Er46    10.0   .     S
V45     Er41    10.0   1_545     S
V45     Ti47    10.0   .     S
V45     V31    10.0   1_655     S
Er46     V42    10.0   1_545     S
Er46     Er32    10.0   1_655     S
Ti47     Ti48    10.0   .     S
Ti47     Ti36    10.0   1_655     S
