data_zec
_audit_creation_date              2020-02-02
_audit_creation_method            'Pymatgen'
_symmetry_space_group_name_H-M    'P1'
_symmetry_Int_Tables_number       1
loop_
_symmetry_equiv_pos_as_xyz
  x,y,z
_cell_length_a                    42.285
_cell_length_b                    35.3819
_cell_length_c                    23.5053
_cell_angle_alpha                 90.0
_cell_angle_beta                 90.0
_cell_angle_gamma                 90.0
loop_
_atom_site_label
_atom_site_type_symbol
_atom_site_fract_x
_atom_site_fract_y
_atom_site_fract_z
Er1     Er     0.8256   0.1413   0.7127
Er2     Er     0.8256   0.8587   0.7127
Er3     Er     0.1744   0.1413   0.7127
Er4     Er     0.1744   0.8587   0.7127
Er5     Er     0.8256   0.1413   0.2873
Er6     Er     0.8256   0.8587   0.2873
Er7     Er     0.1744   0.1413   0.2873
Er8     Er     0.1744   0.8587   0.2873
V9     V     0.0   0.8602   0.0
V10     V     0.0   0.1398   0.0
Er11     Er     0.6744   0.3587   0.7127
Er12     Er     0.6744   0.6413   0.7127
Er13     Er     0.3256   0.3587   0.7127
Er14     Er     0.3256   0.6413   0.7127
Er15     Er     0.3256   0.3587   0.2873
Er16     Er     0.3256   0.6413   0.2873
Er17     Er     0.6744   0.3587   0.2873
Er18     Er     0.6744   0.6413   0.2873
V19     V     0.5   0.3602   0.0
V20     V     0.5   0.6398   0.0
loop_
_geom_bond_atom_site_label_1
_geom_bond_atom_site_label_2
_geom_bond_distance
_geom_bond_site_symmetry_2
_ccdc_geom_bond_type
Er1     Er2    10.0   1_545     S
Er1     V10    10.0   1_656     S
Er1     Er5    10.0   .     S
Er1     Er11    10.001   .     S
Er2     Er1    10.0   1_565     S
Er2     V9    10.0   1_656     S
Er2     Er6    10.0   .     S
Er2     Er12    10.001   .     S
Er3     Er4    10.0   1_545     S
Er3     V10    10.0   1_556     S
Er3     Er7    10.0   .     S
Er3     Er13    10.001   .     S
Er4     Er3    10.0   1_565     S
Er4     V9    10.0   1_556     S
Er4     Er8    10.0   .     S
Er4     Er14    10.001   .     S
Er5     Er6    10.0   1_545     S
Er5     V10    10.0   1_655     S
Er5     Er17    10.001   .     S
Er6     Er5    10.0   1_565     S
Er6     V9    10.0   1_655     S
Er6     Er18    10.001   .     S
Er7     Er8    10.0   1_545     S
Er7     V10    10.0   .     S
Er7     Er15    10.001   .     S
Er8     Er7    10.0   1_565     S
Er8     V9    10.0   .     S
Er8     Er16    10.001   .     S
V9     Er2    10.0   1_454     S
V9     Er4    10.0   1_554     S
V9     Er6    10.0   1_455     S
V10     Er1    10.0   1_454     S
V10     Er3    10.0   1_554     S
V10     Er5    10.0   1_455     S
Er11     Er12    10.0   .     S
Er11     V19    10.0   1_556     S
Er11     Er17    10.0   .     S
Er12     V20    10.0   1_556     S
Er12     Er18    10.0   .     S
Er13     Er14    10.0   .     S
Er13     V19    10.0   1_556     S
Er13     Er15    10.0   .     S
Er14     V20    10.0   1_556     S
Er14     Er16    10.0   .     S
Er15     Er16    10.0   .     S
Er15     V19    10.0   .     S
Er16     V20    10.0   .     S
Er17     Er18    10.0   .     S
Er17     V19    10.0   .     S
Er18     V20    10.0   .     S
V19     Er11    10.0   1_554     S
V19     Er13    10.0   1_554     S
V20     Er12    10.0   1_554     S
V20     Er14    10.0   1_554     S
