data_zfz
_audit_creation_date              2020-02-02
_audit_creation_method            'Pymatgen'
_symmetry_space_group_name_H-M    'P1'
_symmetry_Int_Tables_number       1
loop_
_symmetry_equiv_pos_as_xyz
  x,y,z
_cell_length_a                    19.6304
_cell_length_b                    19.6304
_cell_length_c                    26.714
_cell_angle_alpha                 90.0
_cell_angle_beta                 90.0
_cell_angle_gamma                 120.0
loop_
_atom_site_label
_atom_site_type_symbol
_atom_site_fract_x
_atom_site_fract_y
_atom_site_fract_z
V1     V     0.8009   0.3342   0.4711
V2     V     0.1991   0.5333   0.1956
V3     V     0.6658   0.4667   0.1378
V4     V     0.4667   0.6658   0.8622
V5     V     0.5333   0.1991   0.8044
V6     V     0.3342   0.8009   0.5289
loop_
_geom_bond_atom_site_label_1
_geom_bond_atom_site_label_2
_geom_bond_distance
_geom_bond_site_symmetry_2
_ccdc_geom_bond_type
V1     V6    10.0   1_655     S
V1     V3    10.0   .     S
V1     V2    10.0   1_655     S
V1     V5    10.0   .     S
V1     V6    10.0   1_545     S
V2     V3    10.0   1_455     S
V2     V6    10.0   .     S
V2     V1    10.0   1_455     S
V2     V3    10.0   .     S
V2     V4    10.0   1_554     S
V3     V2    10.0   1_655     S
V3     V5    10.0   1_554     S
V3     V4    10.0   1_554     S
V4     V3    10.0   1_556     S
V4     V5    10.0   .     S
V4     V2    10.0   1_556     S
V4     V5    10.0   1_565     S
V4     V6    10.0   .     S
V5     V3    10.0   1_556     S
V5     V4    10.0   1_545     S
V5     V6    10.0   1_545     S
V6     V1    10.0   1_455     S
V6     V1    10.0   1_565     S
V6     V5    10.0   1_565     S
