data_zga
_audit_creation_date              2020-02-02
_audit_creation_method            'Pymatgen'
_symmetry_space_group_name_H-M    'P1'
_symmetry_Int_Tables_number       1
loop_
_symmetry_equiv_pos_as_xyz
  x,y,z
_cell_length_a                    33.6728
_cell_length_b                    59.1352
_cell_length_c                    20.0
_cell_angle_alpha                 90.0
_cell_angle_beta                 90.0
_cell_angle_gamma                 90.0
loop_
_atom_site_label
_atom_site_type_symbol
_atom_site_fract_x
_atom_site_fract_y
_atom_site_fract_z
V1     V     0.625   0.0405   0.0625
V2     V     0.625   0.0405   0.5625
V3     V     0.625   0.2096   0.0625
V4     V     0.625   0.2096   0.5625
V5     V     0.375   0.7904   0.4375
V6     V     0.375   0.7904   0.9375
V7     V     0.375   0.9596   0.4375
V8     V     0.375   0.9596   0.9375
V9     V     0.625   0.5404   0.3125
V10     V     0.625   0.5404   0.8125
V11     V     0.625   0.7096   0.3125
V12     V     0.625   0.7096   0.8125
V13     V     0.375   0.4596   0.1875
V14     V     0.375   0.4596   0.6875
V15     V     0.375   0.2904   0.1875
V16     V     0.375   0.2904   0.6875
V17     V     0.125   0.0405   0.3125
V18     V     0.125   0.0405   0.8125
V19     V     0.125   0.2096   0.3125
V20     V     0.125   0.2096   0.8125
V21     V     0.875   0.4596   0.4375
V22     V     0.875   0.4596   0.9375
V23     V     0.875   0.2904   0.4375
V24     V     0.875   0.2904   0.9375
V25     V     0.875   0.7904   0.1875
V26     V     0.875   0.7904   0.6875
V27     V     0.875   0.9596   0.1875
V28     V     0.875   0.9596   0.6875
V29     V     0.125   0.5404   0.0625
V30     V     0.125   0.5404   0.5625
V31     V     0.125   0.7096   0.0625
V32     V     0.125   0.7096   0.5625
loop_
_geom_bond_atom_site_label_1
_geom_bond_atom_site_label_2
_geom_bond_distance
_geom_bond_site_symmetry_2
_ccdc_geom_bond_type
V1     V3    10.0   .     S
V1     V2    10.0   .     S
V1     V2    10.0   1_554     S
V1     V8    10.0   1_544     S
V1     V27    10.0   1_545     S
V2     V4    10.0   .     S
V2     V1    10.0   1_556     S
V2     V7    10.0   1_545     S
V2     V28    10.0   1_545     S
V3     V4    10.0   .     S
V3     V4    10.0   1_554     S
V3     V15    10.0   .     S
V3     V24    10.0   1_554     S
V4     V3    10.0   1_556     S
V4     V16    10.0   .     S
V4     V23    10.0   .     S
V5     V7    10.0   .     S
V5     V6    10.0   1_554     S
V5     V6    10.0   .     S
V5     V11    10.0   .     S
V5     V32    10.0   .     S
V6     V8    10.0   .     S
V6     V5    10.0   1_556     S
V6     V12    10.0   .     S
V6     V31    10.0   1_556     S
V7     V8    10.0   1_554     S
V7     V8    10.0   .     S
V7     V2    10.0   1_565     S
V7     V17    10.0   1_565     S
V8     V7    10.0   1_556     S
V8     V1    10.0   1_566     S
V8     V18    10.0   1_565     S
V9     V11    10.0   .     S
V9     V10    10.0   1_554     S
V9     V10    10.0   .     S
V9     V13    10.0   .     S
V9     V21    10.0   .     S
V10     V12    10.0   .     S
V10     V9    10.0   1_556     S
V10     V14    10.0   .     S
V10     V22    10.0   .     S
V11     V12    10.0   1_554     S
V11     V12    10.0   .     S
V11     V25    10.0   .     S
V12     V11    10.0   1_556     S
V12     V26    10.0   .     S
V13     V15    10.0   .     S
V13     V14    10.0   .     S
V13     V14    10.0   1_554     S
V13     V29    10.0   .     S
V14     V16    10.0   .     S
V14     V13    10.0   1_556     S
V14     V30    10.0   .     S
V15     V16    10.0   .     S
V15     V16    10.0   1_554     S
V15     V19    10.0   .     S
V16     V15    10.0   1_556     S
V16     V20    10.0   .     S
V17     V19    10.0   .     S
V17     V18    10.0   1_554     S
V17     V18    10.0   .     S
V17     V27    10.0   1_445     S
V17     V7    10.0   1_545     S
V18     V20    10.0   .     S
V18     V17    10.0   1_556     S
V18     V28    10.0   1_445     S
V18     V8    10.0   1_545     S
V19     V20    10.0   1_554     S
V19     V20    10.0   .     S
V19     V23    10.0   1_455     S
V20     V19    10.0   1_556     S
V20     V24    10.0   1_455     S
V21     V23    10.0   .     S
V21     V22    10.0   1_554     S
V21     V22    10.0   .     S
V21     V30    10.0   1_655     S
V22     V24    10.0   .     S
V22     V21    10.0   1_556     S
V22     V29    10.0   1_656     S
V23     V24    10.0   1_554     S
V23     V24    10.0   .     S
V23     V19    10.0   1_655     S
V24     V23    10.0   1_556     S
V24     V20    10.0   1_655     S
V24     V3    10.0   1_556     S
V25     V27    10.0   .     S
V25     V26    10.0   .     S
V25     V26    10.0   1_554     S
V25     V31    10.0   1_655     S
V26     V28    10.0   .     S
V26     V25    10.0   1_556     S
V26     V32    10.0   1_655     S
V27     V28    10.0   .     S
V27     V28    10.0   1_554     S
V27     V17    10.0   1_665     S
V27     V1    10.0   1_565     S
V28     V27    10.0   1_556     S
V28     V18    10.0   1_665     S
V28     V2    10.0   1_565     S
V29     V22    10.0   1_454     S
V29     V31    10.0   .     S
V29     V30    10.0   .     S
V29     V30    10.0   1_554     S
V30     V21    10.0   1_455     S
V30     V32    10.0   .     S
V30     V29    10.0   1_556     S
V31     V25    10.0   1_455     S
V31     V32    10.0   .     S
V31     V32    10.0   1_554     S
V31     V6    10.0   1_554     S
V32     V26    10.0   1_455     S
V32     V31    10.0   1_556     S
