data_zhc
_audit_creation_date              2020-02-02
_audit_creation_method            'Pymatgen'
_symmetry_space_group_name_H-M    'P1'
_symmetry_Int_Tables_number       1
loop_
_symmetry_equiv_pos_as_xyz
  x,y,z
_cell_length_a                    62.1226
_cell_length_b                    62.1226
_cell_length_c                    45.6911
_cell_angle_alpha                 90.0
_cell_angle_beta                 90.0
_cell_angle_gamma                 90.0
loop_
_atom_site_label
_atom_site_type_symbol
_atom_site_fract_x
_atom_site_fract_y
_atom_site_fract_z
Ce1     Ce     0.6312   0.6312   0.2362
Ce2     Ce     0.6312   0.6312   0.7638
Ce3     Ce     0.6312   0.3688   0.2362
Ce4     Ce     0.6312   0.3688   0.7638
He5     He     0.6342   0.5   0.8906
He6     He     0.6342   0.5   0.1094
Ce7     Ce     0.3688   0.3688   0.2362
He8     He     0.5   0.3658   0.8906
He9     He     0.5   0.3658   0.1094
Ce10     Ce     0.3688   0.3688   0.7638
He11     He     0.3658   0.5   0.8906
He12     He     0.3658   0.5   0.1094
Ce13     Ce     0.3688   0.6312   0.2362
Ce14     Ce     0.3688   0.6312   0.7638
He15     He     0.5   0.6342   0.8906
He16     He     0.5   0.6342   0.1094
V17     V     0.1898   0.0   0.2302
V18     V     0.1898   0.0   0.7698
Er19     Er     0.0962   0.9038   0.1094
Er20     Er     0.0962   0.9038   0.8906
Er21     Er     0.0962   0.0962   0.1094
Er22     Er     0.0962   0.0962   0.8906
V23     V     0.0   0.1898   0.2302
V24     V     0.0   0.1898   0.7698
Er25     Er     0.9038   0.0962   0.1094
Er26     Er     0.9038   0.0962   0.8906
V27     V     0.8102   0.0   0.2302
V28     V     0.0   0.8102   0.2302
V29     V     0.8102   0.0   0.7698
V30     V     0.0   0.8102   0.7698
Er31     Er     0.9038   0.9038   0.1094
Er32     Er     0.9038   0.9038   0.8906
H33     H     0.8049   0.8049   0.5
H34     H     0.8049   0.1951   0.5
Ti35     Ti     0.7623   0.3746   0.3629
S36     S     0.874   0.262   0.3245
Ti37     Ti     0.7623   0.3746   0.6371
S38     S     0.874   0.262   0.6755
Ti39     Ti     0.7623   0.6255   0.6371
S40     S     0.874   0.738   0.6755
Ti41     Ti     0.7623   0.6255   0.3629
S42     S     0.874   0.738   0.3245
Li43     Li     0.7621   0.5   0.5
Ti44     Ti     0.3746   0.2377   0.3629
S45     S     0.262   0.126   0.3245
Ti46     Ti     0.3746   0.2377   0.6371
S47     S     0.262   0.126   0.6755
Ti48     Ti     0.6255   0.2377   0.6371
S49     S     0.738   0.126   0.6755
Ti50     Ti     0.6255   0.2377   0.3629
S51     S     0.738   0.126   0.3245
Li52     Li     0.5   0.2379   0.5
H53     H     0.1951   0.1951   0.5
Ti54     Ti     0.2377   0.3746   0.6371
S55     S     0.126   0.262   0.6755
Ti56     Ti     0.2377   0.3746   0.3629
S57     S     0.126   0.262   0.3245
Ti58     Ti     0.2377   0.6255   0.3629
S59     S     0.126   0.738   0.3245
Ti60     Ti     0.2377   0.6255   0.6371
S61     S     0.126   0.738   0.6755
Li62     Li     0.2379   0.5   0.5
H63     H     0.1951   0.8049   0.5
Ti64     Ti     0.3746   0.7623   0.6371
S65     S     0.262   0.874   0.6755
Ti66     Ti     0.3746   0.7623   0.3629
S67     S     0.262   0.874   0.3245
Ti68     Ti     0.6255   0.7623   0.3629
S69     S     0.738   0.874   0.3245
Ti70     Ti     0.6255   0.7623   0.6371
S71     S     0.738   0.874   0.6755
Li72     Li     0.5   0.7621   0.5
loop_
_geom_bond_atom_site_label_1
_geom_bond_atom_site_label_2
_geom_bond_distance
_geom_bond_site_symmetry_2
_ccdc_geom_bond_type
Ce1     Ti41    10.0   .     S
Ce1     Ti68    10.0   .     S
Ce1     He6    10.0   .     S
Ce1     He16    10.0   .     S
Ce2     Ti70    10.0   .     S
Ce2     Ti39    10.0   .     S
Ce2     He5    10.0   .     S
Ce2     He15    10.0   .     S
Ce3     Ti35    10.0   .     S
Ce3     Ti50    10.0   .     S
Ce3     He6    10.0   .     S
Ce3     He9    10.0   .     S
Ce4     Ti37    10.0   .     S
Ce4     Ti48    10.0   .     S
Ce4     He5    10.0   .     S
Ce4     He8    10.0   .     S
He5     He6    10.0   1_556     S
He6     He5    10.0   1_554     S
Ce7     Ti56    10.0   .     S
Ce7     Ti44    10.0   .     S
Ce7     He9    10.0   .     S
Ce7     He12    10.0   .     S
He8     Ce10    10.0   .     S
He8     He9    10.0   1_556     S
He9     He8    10.0   1_554     S
Ce10     Ti46    10.0   .     S
Ce10     Ti54    10.0   .     S
Ce10     He11    10.0   .     S
He11     Ce14    10.0   .     S
He11     He12    10.0   1_556     S
He12     Ce13    10.0   .     S
He12     He11    10.0   1_554     S
Ce13     Ti66    10.0   .     S
Ce13     Ti58    10.0   .     S
Ce13     He16    10.0   .     S
Ce14     Ti64    10.0   .     S
Ce14     Ti60    10.0   .     S
Ce14     He15    10.0   .     S
He15     He16    10.0   1_556     S
He16     He15    10.0   1_554     S
V17     Er21    10.0   .     S
V17     Er19    10.0   1_545     S
V17     S45    10.0   .     S
V17     S67    10.0   1_545     S
V18     Er22    10.0   .     S
V18     Er20    10.0   1_545     S
V18     S47    10.0   .     S
V18     S65    10.0   1_545     S
Er19     V17    10.0   1_565     S
Er19     Er20    10.0   1_554     S
Er19     V28    10.0   .     S
Er20     V18    10.0   1_565     S
Er20     Er19    10.0   1_556     S
Er20     V30    10.0   .     S
Er21     Er22    10.0   1_554     S
Er21     V23    10.0   .     S
Er22     Er21    10.0   1_556     S
Er22     V24    10.0   .     S
V23     Er25    10.0   1_455     S
V23     S36    10.0   1_455     S
V23     S57    10.0   .     S
V24     Er26    10.0   1_455     S
V24     S38    10.0   1_455     S
V24     S55    10.0   .     S
Er25     V23    10.0   1_655     S
Er25     Er26    10.0   1_554     S
Er25     V27    10.0   .     S
Er26     V24    10.0   1_655     S
Er26     Er25    10.0   1_556     S
Er26     V29    10.0   .     S
V27     Er31    10.0   1_545     S
V27     S51    10.0   .     S
V27     S69    10.0   1_545     S
V28     Er31    10.0   1_455     S
V28     S42    10.0   1_455     S
V28     S59    10.0   .     S
V29     Er32    10.0   1_545     S
V29     S49    10.0   .     S
V29     S71    10.0   1_545     S
V30     Er32    10.0   1_455     S
V30     S40    10.0   1_455     S
V30     S61    10.0   .     S
Er31     V27    10.0   1_565     S
Er31     V28    10.0   1_655     S
Er31     Er32    10.0   1_554     S
Er32     V29    10.0   1_565     S
Er32     V30    10.0   1_655     S
Er32     Er31    10.0   1_556     S
H33     S42    10.0   .     S
H33     S71    10.0   .     S
H33     S40    10.0   .     S
H33     S69    10.0   .     S
H34     S38    10.0   .     S
H34     S36    10.0   .     S
H34     S51    10.0   .     S
H34     S49    10.0   .     S
Ti35     Li43    10.0   .     S
Ti35     S36    10.0   .     S
S36     V23    10.0   1_655     S
Ti37     Li43    10.0   .     S
Ti37     S38    10.0   .     S
S38     V24    10.0   1_655     S
Ti39     Li43    10.0   .     S
Ti39     S40    10.0   .     S
S40     V30    10.0   1_655     S
Ti41     Li43    10.0   .     S
Ti41     S42    10.0   .     S
S42     V28    10.0   1_655     S
Ti44     Li52    10.0   .     S
Ti44     S45    10.0   .     S
S45     H53    10.0   .     S
Ti46     Li52    10.0   .     S
Ti46     S47    10.0   .     S
S47     H53    10.0   .     S
Ti48     Li52    10.0   .     S
Ti48     S49    10.0   .     S
Ti50     Li52    10.0   .     S
Ti50     S51    10.0   .     S
H53     S57    10.0   .     S
H53     S55    10.0   .     S
Ti54     Li62    10.0   .     S
Ti54     S55    10.0   .     S
Ti56     Li62    10.0   .     S
Ti56     S57    10.0   .     S
Ti58     Li62    10.0   .     S
Ti58     S59    10.0   .     S
S59     H63    10.0   .     S
Ti60     Li62    10.0   .     S
Ti60     S61    10.0   .     S
S61     H63    10.0   .     S
H63     S67    10.0   .     S
H63     S65    10.0   .     S
Ti64     Li72    10.0   .     S
Ti64     S65    10.0   .     S
S65     V18    10.0   1_565     S
Ti66     Li72    10.0   .     S
Ti66     S67    10.0   .     S
S67     V17    10.0   1_565     S
Ti68     Li72    10.0   .     S
Ti68     S69    10.0   .     S
S69     V27    10.0   1_565     S
Ti70     Li72    10.0   .     S
Ti70     S71    10.0   .     S
S71     V29    10.0   1_565     S
