data_zhl
_audit_creation_date              2020-02-02
_audit_creation_method            'Pymatgen'
_symmetry_space_group_name_H-M    'P1'
_symmetry_Int_Tables_number       1
loop_
_symmetry_equiv_pos_as_xyz
  x,y,z
_cell_length_a                    17.3205
_cell_length_b                    33.5569
_cell_length_c                    31.5721
_cell_angle_alpha                 90.0
_cell_angle_beta                 100.5925
_cell_angle_gamma                 90.0
loop_
_atom_site_label
_atom_site_type_symbol
_atom_site_fract_x
_atom_site_fract_y
_atom_site_fract_z
V1     V     0.4607   0.9255   0.1316
Er2     Er     0.4607   0.2235   0.1316
V3     V     0.0393   0.9255   0.8684
Er4     Er     0.0393   0.2235   0.8684
V5     V     0.9607   0.0745   0.1316
Er6     Er     0.9607   0.7765   0.1316
V7     V     0.5393   0.0745   0.8684
Er8     Er     0.5393   0.7765   0.8684
V9     V     0.4607   0.5745   0.6316
Er10     Er     0.4607   0.2765   0.6316
V11     V     0.0393   0.5745   0.3684
Er12     Er     0.0393   0.2765   0.3684
V13     V     0.9607   0.4255   0.6316
Er14     Er     0.9607   0.7235   0.6316
V15     V     0.5393   0.4255   0.3684
Er16     Er     0.5393   0.7235   0.3684
loop_
_geom_bond_atom_site_label_1
_geom_bond_atom_site_label_2
_geom_bond_distance
_geom_bond_site_symmetry_2
_ccdc_geom_bond_type
V1     Er2    10.0   1_565     S
V1     V3    10.0   1_554     S
V1     Er6    10.0   .     S
V1     V5    10.0   1_565     S
V1     V7    10.0   1_564     S
V1     Er8    10.0   1_554     S
V1     V5    10.0   1_465     S
V1     Er16    10.0   .     S
Er2     V1    10.0   1_545     S
Er2     Er4    10.0   1_554     S
Er2     V7    10.0   1_554     S
Er2     V5    10.0   1_455     S
Er2     V15    10.0   .     S
V3     Er4    10.0   1_565     S
V3     V1    10.0   1_556     S
V3     V7    10.0   1_565     S
V3     V5    10.0   1_466     S
V3     Er6    10.0   1_456     S
V3     Er8    10.0   1_455     S
V3     V7    10.0   1_465     S
V3     Er14    10.0   1_455     S
Er4     V3    10.0   1_545     S
Er4     Er2    10.0   1_556     S
Er4     V7    10.0   .     S
Er4     V5    10.0   1_456     S
Er4     V13    10.0   1_455     S
V5     V1    10.0   1_545     S
V5     Er6    10.0   1_545     S
V5     V7    10.0   1_554     S
V5     Er2    10.0   1_655     S
V5     V1    10.0   1_645     S
V5     V3    10.0   1_644     S
V5     Er4    10.0   1_654     S
V5     Er12    10.0   1_655     S
Er6     V5    10.0   1_565     S
Er6     Er8    10.0   1_554     S
Er6     V3    10.0   1_654     S
Er6     V11    10.0   1_655     S
V7     V3    10.0   1_545     S
V7     V1    10.0   1_546     S
V7     Er2    10.0   1_556     S
V7     Er8    10.0   1_545     S
V7     V5    10.0   1_556     S
V7     V3    10.0   1_645     S
V7     Er10    10.0   .     S
Er8     V1    10.0   1_556     S
Er8     V7    10.0   1_565     S
Er8     Er6    10.0   1_556     S
Er8     V3    10.0   1_655     S
Er8     V9    10.0   .     S
V9     Er14    10.0   .     S
V9     V13    10.0   .     S
V9     V15    10.0   .     S
V9     Er16    10.0   .     S
V9     Er10    10.0   .     S
V9     V11    10.0   .     S
V9     V13    10.0   1_455     S
Er10     V15    10.0   .     S
Er10     Er12    10.0   .     S
Er10     V13    10.0   1_455     S
V11     V15    10.0   .     S
V11     Er12    10.0   .     S
V11     V13    10.0   1_455     S
V11     Er14    10.0   1_455     S
V11     Er16    10.0   1_455     S
V11     V15    10.0   1_455     S
V11     Er6    10.0   1_455     S
Er12     V15    10.0   .     S
Er12     V13    10.0   1_455     S
Er12     V5    10.0   1_455     S
V13     Er14    10.0   .     S
V13     V15    10.0   .     S
V13     Er10    10.0   1_655     S
V13     V9    10.0   1_655     S
V13     V11    10.0   1_655     S
V13     Er12    10.0   1_655     S
V13     Er4    10.0   1_655     S
Er14     Er16    10.0   .     S
Er14     V11    10.0   1_655     S
Er14     V3    10.0   1_655     S
V15     Er16    10.0   .     S
V15     V11    10.0   1_655     S
Er16     V11    10.0   1_655     S
