data_zim
_audit_creation_date              2020-02-02
_audit_creation_method            'Pymatgen'
_symmetry_space_group_name_H-M    'P1'
_symmetry_Int_Tables_number       1
loop_
_symmetry_equiv_pos_as_xyz
  x,y,z
_cell_length_a                    19.2326
_cell_length_b                    37.548
_cell_length_c                    14.5326
_cell_angle_alpha                 90.0
_cell_angle_beta                 98.6191
_cell_angle_gamma                 90.0
loop_
_atom_site_label
_atom_site_type_symbol
_atom_site_fract_x
_atom_site_fract_y
_atom_site_fract_z
Er1     Er     0.375   0.75   0.1667
Er2     Er     0.375   0.75   0.5
Er3     Er     0.375   0.75   0.8333
Er4     Er     0.875   0.75   0.1667
Er5     Er     0.875   0.75   0.5
Er6     Er     0.875   0.75   0.8333
Er7     Er     0.125   0.75   0.1667
Er8     Er     0.125   0.75   0.5
Er9     Er     0.125   0.75   0.8333
Er10     Er     0.625   0.75   0.1667
Er11     Er     0.625   0.75   0.5
Er12     Er     0.625   0.75   0.8333
Er13     Er     0.125   0.25   0.1667
Er14     Er     0.125   0.25   0.5
Er15     Er     0.125   0.25   0.8333
Er16     Er     0.625   0.25   0.1667
Er17     Er     0.625   0.25   0.5
Er18     Er     0.625   0.25   0.8333
Er19     Er     0.375   0.25   0.1667
Er20     Er     0.375   0.25   0.5
Er21     Er     0.375   0.25   0.8333
Er22     Er     0.875   0.25   0.1667
Er23     Er     0.875   0.25   0.5
Er24     Er     0.875   0.25   0.8333
V25     V     0.0   0.0   0.0
V26     V     0.0   0.0   0.3333
V27     V     0.0   0.0   0.6667
V28     V     0.5   0.0   0.0
V29     V     0.5   0.0   0.3333
V30     V     0.5   0.0   0.6667
V31     V     0.25   0.5   0.0
V32     V     0.25   0.5   0.3333
V33     V     0.25   0.5   0.6667
V34     V     0.75   0.5   0.0
V35     V     0.75   0.5   0.3333
V36     V     0.75   0.5   0.6667
loop_
_geom_bond_atom_site_label_1
_geom_bond_atom_site_label_2
_geom_bond_distance
_geom_bond_site_symmetry_2
_ccdc_geom_bond_type
Er1     V31    9.9   .     S
Er1     V29    9.9   1_565     S
Er1     V32    10.075   .     S
Er1     V28    10.075   1_565     S
Er2     V32    9.9   .     S
Er2     V30    9.9   1_565     S
Er2     V33    10.075   .     S
Er2     V29    10.075   1_565     S
Er3     V33    9.9   .     S
Er3     V28    9.9   1_566     S
Er3     V31    10.075   1_556     S
Er3     V30    10.075   1_565     S
Er4     V34    9.9   .     S
Er4     V26    9.9   1_665     S
Er4     V35    10.075   .     S
Er4     V25    10.075   1_665     S
Er5     V35    9.9   .     S
Er5     V27    9.9   1_665     S
Er5     V36    10.075   .     S
Er5     V26    10.075   1_665     S
Er6     V36    9.9   .     S
Er6     V25    9.9   1_666     S
Er6     V34    10.075   1_556     S
Er6     V27    10.075   1_665     S
Er7     V32    9.9   .     S
Er7     V25    9.9   1_565     S
Er7     V31    10.075   .     S
Er7     V26    10.075   1_565     S
Er8     V33    9.9   .     S
Er8     V26    9.9   1_565     S
Er8     V32    10.075   .     S
Er8     V27    10.075   1_565     S
Er9     V31    9.9   1_556     S
Er9     V27    9.9   1_565     S
Er9     V33    10.075   .     S
Er9     V25    10.075   1_566     S
Er10     V35    9.9   .     S
Er10     V28    9.9   1_565     S
Er10     V34    10.075   .     S
Er10     V29    10.075   1_565     S
Er11     V36    9.9   .     S
Er11     V29    9.9   1_565     S
Er11     V35    10.075   .     S
Er11     V30    10.075   1_565     S
Er12     V34    9.9   1_556     S
Er12     V30    9.9   1_565     S
Er12     V36    10.075   .     S
Er12     V28    10.075   1_566     S
Er13     V32    9.9   .     S
Er13     V25    9.9   .     S
Er13     V31    10.075   .     S
Er13     V26    10.075   .     S
Er14     V33    9.9   .     S
Er14     V26    9.9   .     S
Er14     V32    10.075   .     S
Er14     V27    10.075   .     S
Er15     V31    9.9   1_556     S
Er15     V27    9.9   .     S
Er15     V33    10.075   .     S
Er15     V25    10.075   1_556     S
Er16     V35    9.9   .     S
Er16     V28    9.9   .     S
Er16     V34    10.075   .     S
Er16     V29    10.075   .     S
Er17     V36    9.9   .     S
Er17     V29    9.9   .     S
Er17     V35    10.075   .     S
Er17     V30    10.075   .     S
Er18     V34    9.9   1_556     S
Er18     V30    9.9   .     S
Er18     V36    10.075   .     S
Er18     V28    10.075   1_556     S
Er19     V31    9.9   .     S
Er19     V29    9.9   .     S
Er19     V32    10.075   .     S
Er19     V28    10.075   .     S
Er20     V32    9.9   .     S
Er20     V30    9.9   .     S
Er20     V33    10.075   .     S
Er20     V29    10.075   .     S
Er21     V33    9.9   .     S
Er21     V28    9.9   1_556     S
Er21     V31    10.075   1_556     S
Er21     V30    10.075   .     S
Er22     V34    9.9   .     S
Er22     V26    9.9   1_655     S
Er22     V35    10.075   .     S
Er22     V25    10.075   1_655     S
Er23     V35    9.9   .     S
Er23     V27    9.9   1_655     S
Er23     V36    10.075   .     S
Er23     V26    10.075   1_655     S
Er24     V36    9.9   .     S
Er24     V25    9.9   1_656     S
Er24     V34    10.075   1_556     S
Er24     V27    10.075   1_655     S
V25     V29    10.098   .     S
V25     V30    10.098   1_454     S
V25     Er6    9.9   1_444     S
V25     Er7    9.9   1_545     S
V25     Er24    9.9   1_454     S
V25     Er9    10.075   1_544     S
V25     Er4    10.075   1_445     S
V25     Er22    10.075   1_455     S
V25     Er15    10.075   1_554     S
V26     V30    10.098   .     S
V26     V28    10.098   1_455     S
V26     Er4    9.9   1_445     S
V26     Er8    9.9   1_545     S
V26     Er22    9.9   1_455     S
V26     Er7    10.075   1_545     S
V26     Er5    10.075   1_445     S
V26     Er23    10.075   1_455     S
V27     V28    10.098   1_556     S
V27     V29    10.098   1_455     S
V27     Er5    9.9   1_445     S
V27     Er9    9.9   1_545     S
V27     Er23    9.9   1_455     S
V27     Er8    10.075   1_545     S
V27     Er6    10.075   1_445     S
V27     Er24    10.075   1_455     S
V28     V27    10.098   1_554     S
V28     V26    10.098   1_655     S
V28     Er3    9.9   1_544     S
V28     Er10    9.9   1_545     S
V28     Er21    9.9   1_554     S
V28     Er12    10.075   1_544     S
V28     Er1    10.075   1_545     S
V28     Er18    10.075   1_554     S
V29     V27    10.098   1_655     S
V29     Er1    9.9   1_545     S
V29     Er11    9.9   1_545     S
V29     Er10    10.075   1_545     S
V29     Er2    10.075   1_545     S
V30     V25    10.098   1_656     S
V30     Er2    9.9   1_545     S
V30     Er12    9.9   1_545     S
V30     Er11    10.075   1_545     S
V30     Er3    10.075   1_545     S
V31     V36    10.098   1_454     S
V31     V35    10.098   .     S
V31     Er15    9.9   1_554     S
V31     Er9    9.9   1_554     S
V31     Er21    10.075   1_554     S
V31     Er3    10.075   1_554     S
V32     V34    10.098   1_455     S
V32     V36    10.098   .     S
V33     V35    10.098   1_455     S
V33     V34    10.098   1_556     S
V34     V32    10.098   1_655     S
V34     V33    10.098   1_554     S
V34     Er18    9.9   1_554     S
V34     Er12    9.9   1_554     S
V34     Er24    10.075   1_554     S
V34     Er6    10.075   1_554     S
V35     V33    10.098   1_655     S
V36     V31    10.098   1_656     S
