data_zjza
_audit_creation_date              2020-02-02
_audit_creation_method            'Pymatgen'
_symmetry_space_group_name_H-M    'P1'
_symmetry_Int_Tables_number       1
loop_
_symmetry_equiv_pos_as_xyz
  x,y,z
_cell_length_a                    105.7893
_cell_length_b                    105.7893
_cell_length_c                    105.7893
_cell_angle_alpha                 90.0
_cell_angle_beta                 90.0
_cell_angle_gamma                 90.0
loop_
_atom_site_label
_atom_site_type_symbol
_atom_site_fract_x
_atom_site_fract_y
_atom_site_fract_z
S1     S     0.7842   0.7173   0.7842
S2     S     0.7842   0.7842   0.7173
S3     S     0.7173   0.7842   0.7842
S4     S     0.7842   0.7173   0.2158
S5     S     0.7173   0.7842   0.2158
S6     S     0.7842   0.7842   0.2827
S7     S     0.7173   0.2158   0.7842
S8     S     0.7842   0.2158   0.7173
S9     S     0.7842   0.2827   0.7842
S10     S     0.2158   0.7173   0.7842
S11     S     0.2158   0.7842   0.7173
S12     S     0.2827   0.7842   0.7842
S13     S     0.2158   0.2158   0.7173
S14     S     0.2158   0.2827   0.7842
S15     S     0.2827   0.2158   0.7842
Ce16     Ce     0.1141   0.8859   0.3887
Ti17     Ti     0.1779   0.8221   0.3605
Ce18     Ce     0.8859   0.8859   0.3887
Ti19     Ti     0.8221   0.8221   0.3605
V20     V     0.0473   0.9527   0.3874
V21     V     0.0473   0.0473   0.3874
V22     V     0.9527   0.0473   0.3874
V23     V     0.9527   0.9527   0.3874
Ce24     Ce     0.8859   0.1141   0.3887
Ti25     Ti     0.8221   0.1779   0.3605
Ce26     Ce     0.1141   0.1141   0.3887
Ti27     Ti     0.1779   0.1779   0.3605
Er28     Er     0.8367   0.8367   0.4527
Er29     Er     0.8367   0.8367   0.5473
Er30     Er     0.8367   0.1633   0.4527
Er31     Er     0.8367   0.1633   0.5473
Er32     Er     0.1633   0.8367   0.4527
Er33     Er     0.1633   0.8367   0.5473
Er34     Er     0.1633   0.1633   0.4527
Er35     Er     0.1633   0.1633   0.5473
Ce36     Ce     0.8859   0.1141   0.6113
Ti37     Ti     0.8221   0.1779   0.6395
Ce38     Ce     0.8859   0.8859   0.6113
Ti39     Ti     0.8221   0.8221   0.6395
V40     V     0.9527   0.0473   0.6126
V41     V     0.0473   0.0473   0.6126
V42     V     0.0473   0.9527   0.6126
V43     V     0.9527   0.9527   0.6126
Ce44     Ce     0.1141   0.8859   0.6113
Ti45     Ti     0.1779   0.8221   0.6395
Ce46     Ce     0.1141   0.1141   0.6113
Ti47     Ti     0.1779   0.1779   0.6395
S48     S     0.2158   0.7173   0.2158
S49     S     0.2158   0.7842   0.2827
S50     S     0.2827   0.7842   0.2158
Ce51     Ce     0.1141   0.3887   0.8859
Ti52     Ti     0.1779   0.3605   0.8221
Ce53     Ce     0.8859   0.3887   0.8859
Ti54     Ti     0.8221   0.3605   0.8221
V55     V     0.0473   0.3874   0.9527
V56     V     0.0473   0.3874   0.0473
V57     V     0.9527   0.3874   0.0473
V58     V     0.9527   0.3874   0.9527
Ce59     Ce     0.8859   0.3887   0.1141
Ti60     Ti     0.8221   0.3605   0.1779
Ce61     Ce     0.1141   0.3887   0.1141
Ti62     Ti     0.1779   0.3605   0.1779
Er63     Er     0.8367   0.4527   0.8367
Er64     Er     0.8367   0.5473   0.8367
Er65     Er     0.8367   0.4527   0.1633
Er66     Er     0.8367   0.5473   0.1633
Er67     Er     0.1633   0.4527   0.8367
Er68     Er     0.1633   0.5473   0.8367
Er69     Er     0.1633   0.4527   0.1633
Er70     Er     0.1633   0.5473   0.1633
Ce71     Ce     0.8859   0.6113   0.1141
Ti72     Ti     0.8221   0.6395   0.1779
Ce73     Ce     0.8859   0.6113   0.8859
Ti74     Ti     0.8221   0.6395   0.8221
V75     V     0.9527   0.6126   0.0473
V76     V     0.0473   0.6126   0.0473
V77     V     0.0473   0.6126   0.9527
V78     V     0.9527   0.6126   0.9527
Ce79     Ce     0.1141   0.6113   0.8859
Ti80     Ti     0.1779   0.6395   0.8221
Ce81     Ce     0.1141   0.6113   0.1141
Ti82     Ti     0.1779   0.6395   0.1779
S83     S     0.7173   0.2158   0.2158
S84     S     0.7842   0.2158   0.2827
S85     S     0.7842   0.2827   0.2158
S86     S     0.2158   0.2158   0.2827
S87     S     0.2827   0.2158   0.2158
S88     S     0.2158   0.2827   0.2158
Ce89     Ce     0.3887   0.8859   0.1141
Ti90     Ti     0.3605   0.8221   0.1779
Ce91     Ce     0.3887   0.8859   0.8859
Ti92     Ti     0.3605   0.8221   0.8221
V93     V     0.3874   0.9527   0.0473
V94     V     0.3874   0.0473   0.0473
V95     V     0.3874   0.0473   0.9527
V96     V     0.3874   0.9527   0.9527
Ce97     Ce     0.3887   0.1141   0.8859
Ti98     Ti     0.3605   0.1779   0.8221
Ce99     Ce     0.3887   0.1141   0.1141
Ti100     Ti     0.3605   0.1779   0.1779
Er101     Er     0.4527   0.8367   0.8367
Er102     Er     0.5473   0.8367   0.8367
Er103     Er     0.4527   0.1633   0.8367
Er104     Er     0.5473   0.1633   0.8367
Er105     Er     0.4527   0.8367   0.1633
Er106     Er     0.5473   0.8367   0.1633
Er107     Er     0.4527   0.1633   0.1633
Er108     Er     0.5473   0.1633   0.1633
Ce109     Ce     0.6113   0.1141   0.8859
Ti110     Ti     0.6395   0.1779   0.8221
Ce111     Ce     0.6113   0.8859   0.8859
Ti112     Ti     0.6395   0.8221   0.8221
V113     V     0.6126   0.0473   0.9527
V114     V     0.6126   0.0473   0.0473
V115     V     0.6126   0.9527   0.0473
V116     V     0.6126   0.9527   0.9527
Ce117     Ce     0.6113   0.8859   0.1141
Ti118     Ti     0.6395   0.8221   0.1779
Ce119     Ce     0.6113   0.1141   0.1141
Ti120     Ti     0.6395   0.1779   0.1779
loop_
_geom_bond_atom_site_label_1
_geom_bond_atom_site_label_2
_geom_bond_distance
_geom_bond_site_symmetry_2
_ccdc_geom_bond_type
S1     S2    10.0   .     S
S1     S3    10.0   .     S
S1     Ti74    10.001   .     S
S2     S3    10.0   .     S
S2     Ti39    10.001   .     S
S3     Ti112    10.001   .     S
S4     S6    10.0   .     S
S4     S5    10.0   .     S
S4     Ti72    10.001   .     S
S5     S6    10.0   .     S
S5     Ti118    10.001   .     S
S6     Ti19    10.001   .     S
S7     S9    10.0   .     S
S7     S8    10.0   .     S
S7     Ti110    10.001   .     S
S8     S9    10.0   .     S
S8     Ti37    10.001   .     S
S9     Ti54    10.001   .     S
S10     S12    10.0   .     S
S10     S11    10.0   .     S
S10     Ti80    10.001   .     S
S11     S12    10.0   .     S
S11     Ti45    10.001   .     S
S12     Ti92    10.001   .     S
S13     S15    10.0   .     S
S13     S14    10.0   .     S
S13     Ti47    10.001   .     S
S14     S15    10.0   .     S
S14     Ti52    10.001   .     S
S15     Ti98    10.001   .     S
Ce16     Er32    10.0   .     S
Ce16     Ti17    9.999   .     S
Ce16     V20    10.001   .     S
Ti17     Er32    10.0   .     S
Ti17     S49    10.001   .     S
Ce18     Er28    10.0   .     S
Ce18     Ti19    9.999   .     S
Ce18     V23    10.001   .     S
Ti19     Er28    10.0   .     S
V20     V23    9.999   1_455     S
V20     V21    9.999   1_565     S
V21     V20    9.999   1_545     S
V21     V22    9.999   1_455     S
V21     Ce26    10.001   .     S
V22     V21    9.999   1_655     S
V22     V23    9.999   1_545     S
V22     Ce24    10.001   .     S
V23     V20    9.999   1_655     S
V23     V22    9.999   1_565     S
Ce24     Er30    10.0   .     S
Ce24     Ti25    9.999   .     S
Ti25     Er30    10.0   .     S
Ti25     S84    10.001   .     S
Ce26     Er34    10.0   .     S
Ce26     Ti27    9.999   .     S
Ti27     Er34    10.0   .     S
Ti27     S86    10.001   .     S
Er28     Er29    9.999   .     S
Er29     Ce38    10.0   .     S
Er29     Ti39    10.0   .     S
Er30     Er31    9.999   .     S
Er31     Ce36    10.0   .     S
Er31     Ti37    10.0   .     S
Er32     Er33    9.999   .     S
Er33     Ce44    10.0   .     S
Er33     Ti45    10.0   .     S
Er34     Er35    9.999   .     S
Er35     Ce46    10.0   .     S
Er35     Ti47    10.0   .     S
Ce36     Ti37    9.999   .     S
Ce36     V40    10.001   .     S
Ce38     Ti39    9.999   .     S
Ce38     V43    10.001   .     S
V40     V43    9.999   1_545     S
V40     V41    9.999   1_655     S
V41     V42    9.999   1_545     S
V41     V40    9.999   1_455     S
V41     Ce46    10.001   .     S
V42     V41    9.999   1_565     S
V42     V43    9.999   1_455     S
V42     Ce44    10.001   .     S
V43     V40    9.999   1_565     S
V43     V42    9.999   1_655     S
Ce44     Ti45    9.999   .     S
Ce46     Ti47    9.999   .     S
S48     S49    10.0   .     S
S48     S50    10.0   .     S
S48     Ti82    10.001   .     S
S49     S50    10.0   .     S
S50     Ti90    10.001   .     S
Ce51     Er67    10.0   .     S
Ce51     Ti52    9.999   .     S
Ce51     V55    10.001   .     S
Ti52     Er67    10.0   .     S
Ce53     Er63    10.0   .     S
Ce53     Ti54    9.999   .     S
Ce53     V58    10.001   .     S
Ti54     Er63    10.0   .     S
V55     V58    9.999   1_455     S
V55     V56    9.999   1_556     S
V56     V55    9.999   1_554     S
V56     V57    9.999   1_455     S
V56     Ce61    10.001   .     S
V57     V56    9.999   1_655     S
V57     V58    9.999   1_554     S
V57     Ce59    10.001   .     S
V58     V55    9.999   1_655     S
V58     V57    9.999   1_556     S
Ce59     Er65    10.0   .     S
Ce59     Ti60    9.999   .     S
Ti60     Er65    10.0   .     S
Ti60     S85    10.001   .     S
Ce61     Er69    10.0   .     S
Ce61     Ti62    9.999   .     S
Ti62     Er69    10.0   .     S
Ti62     S88    10.001   .     S
Er63     Er64    9.999   .     S
Er64     Ce73    10.0   .     S
Er64     Ti74    10.0   .     S
Er65     Er66    9.999   .     S
Er66     Ce71    10.0   .     S
Er66     Ti72    10.0   .     S
Er67     Er68    9.999   .     S
Er68     Ce79    10.0   .     S
Er68     Ti80    10.0   .     S
Er69     Er70    9.999   .     S
Er70     Ce81    10.0   .     S
Er70     Ti82    10.0   .     S
Ce71     Ti72    9.999   .     S
Ce71     V75    10.001   .     S
Ce73     Ti74    9.999   .     S
Ce73     V78    10.001   .     S
V75     V78    9.999   1_554     S
V75     V76    9.999   1_655     S
V76     V77    9.999   1_554     S
V76     V75    9.999   1_455     S
V76     Ce81    10.001   .     S
V77     V76    9.999   1_556     S
V77     V78    9.999   1_455     S
V77     Ce79    10.001   .     S
V78     V75    9.999   1_556     S
V78     V77    9.999   1_655     S
Ce79     Ti80    9.999   .     S
Ce81     Ti82    9.999   .     S
S83     S84    10.0   .     S
S83     S85    10.0   .     S
S83     Ti120    10.001   .     S
S84     S85    10.0   .     S
S86     S88    10.0   .     S
S86     S87    10.0   .     S
S87     S88    10.0   .     S
S87     Ti100    10.001   .     S
Ce89     Er105    10.0   .     S
Ce89     Ti90    9.999   .     S
Ce89     V93    10.001   .     S
Ti90     Er105    10.0   .     S
Ce91     Er101    10.0   .     S
Ce91     Ti92    9.999   .     S
Ce91     V96    10.001   .     S
Ti92     Er101    10.0   .     S
V93     V96    9.999   1_554     S
V93     V94    9.999   1_565     S
V94     V95    9.999   1_554     S
V94     V93    9.999   1_545     S
V94     Ce99    10.001   .     S
V95     V94    9.999   1_556     S
V95     V96    9.999   1_545     S
V95     Ce97    10.001   .     S
V96     V93    9.999   1_556     S
V96     V95    9.999   1_565     S
Ce97     Er103    10.0   .     S
Ce97     Ti98    9.999   .     S
Ti98     Er103    10.0   .     S
Ce99     Er107    10.0   .     S
Ce99     Ti100    9.999   .     S
Ti100     Er107    10.0   .     S
Er101     Er102    9.999   .     S
Er102     Ce111    10.0   .     S
Er102     Ti112    10.0   .     S
Er103     Er104    9.999   .     S
Er104     Ce109    10.0   .     S
Er104     Ti110    10.0   .     S
Er105     Er106    9.999   .     S
Er106     Ce117    10.0   .     S
Er106     Ti118    10.0   .     S
Er107     Er108    9.999   .     S
Er108     Ce119    10.0   .     S
Er108     Ti120    10.0   .     S
Ce109     Ti110    9.999   .     S
Ce109     V113    10.001   .     S
Ce111     Ti112    9.999   .     S
Ce111     V116    10.001   .     S
V113     V116    9.999   1_545     S
V113     V114    9.999   1_556     S
V114     V113    9.999   1_554     S
V114     V115    9.999   1_545     S
V114     Ce119    10.001   .     S
V115     V114    9.999   1_565     S
V115     V116    9.999   1_554     S
V115     Ce117    10.001   .     S
V116     V113    9.999   1_565     S
V116     V115    9.999   1_556     S
Ce117     Ti118    9.999   .     S
Ce119     Ti120    9.999   .     S
