data_zkf
_audit_creation_date              2020-02-02
_audit_creation_method            'Pymatgen'
_symmetry_space_group_name_H-M    'P1'
_symmetry_Int_Tables_number       1
loop_
_symmetry_equiv_pos_as_xyz
  x,y,z
_cell_length_a                    37.9526
_cell_length_b                    62.6764
_cell_length_c                    19.9618
_cell_angle_alpha                 90.0
_cell_angle_beta                 102.5872
_cell_angle_gamma                 90.0
loop_
_atom_site_label
_atom_site_type_symbol
_atom_site_fract_x
_atom_site_fract_y
_atom_site_fract_z
Er1     Er     0.3651   0.5895   0.1899
Er2     Er     0.6348   0.5895   0.3101
V3     V     0.5   0.7276   0.25
Er4     Er     0.3651   0.4105   0.6899
Er5     Er     0.6348   0.4105   0.8101
V6     V     0.5   0.2724   0.75
Ti7     Ti     0.633   0.0078   0.0891
Ti8     Ti     0.367   0.0078   0.4109
Ce9     Ce     0.5   0.1126   0.75
Ti10     Ti     0.633   0.9922   0.5891
Ti11     Ti     0.367   0.9922   0.9109
Ce12     Ce     0.5   0.8874   0.25
Er13     Er     0.1348   0.9105   0.8101
Er14     Er     0.8652   0.9105   0.6899
V15     V     0.0   0.7724   0.75
Er16     Er     0.1348   0.0895   0.3101
Er17     Er     0.8652   0.0895   0.1899
V18     V     0.0   0.2276   0.25
Ti19     Ti     0.133   0.5078   0.0891
Ti20     Ti     0.867   0.5078   0.4109
Ce21     Ce     0.0   0.6126   0.75
Ti22     Ti     0.133   0.4922   0.5891
Ti23     Ti     0.867   0.4922   0.9109
Ce24     Ce     0.0   0.3874   0.25
loop_
_geom_bond_atom_site_label_1
_geom_bond_atom_site_label_2
_geom_bond_distance
_geom_bond_site_symmetry_2
_ccdc_geom_bond_type
Er1     Er2    9.991   .     S
Er1     V3    9.995   .     S
Er1     Ti19    10.012   .     S
Er2     V3    9.995   .     S
Er2     Ti20    10.012   .     S
V3     Ce12    10.011   .     S
Er4     Er5    9.991   .     S
Er4     V6    9.995   .     S
Er4     Ti22    10.012   .     S
Er5     V6    9.995   .     S
Er5     Ti23    10.012   .     S
V6     Ce9    10.011   .     S
Ti7     Ce9    9.979   1_554     S
Ti7     Ce12    9.989   1_545     S
Ti7     Ti11    9.991   1_544     S
Ti7     Er17    10.012   .     S
Ti7     Ti10    10.028   1_545     S
Ti7     Ti10    10.028   1_544     S
Ti8     Ce9    9.979   .     S
Ti8     Ce12    9.989   1_545     S
Ti8     Ti10    9.991   1_545     S
Ti8     Er16    10.012   .     S
Ti8     Ti11    10.028   1_545     S
Ti8     Ti11    10.028   1_544     S
Ce9     Ti7    9.979   1_556     S
Ce9     Ti11    9.989   1_545     S
Ce9     Ti10    9.989   1_545     S
Ti10     Ce12    9.979   .     S
Ti10     Ce9    9.989   1_565     S
Ti10     Ti8    9.991   1_565     S
Ti10     Er14    10.012   .     S
Ti10     Ti7    10.028   1_565     S
Ti10     Ti7    10.028   1_566     S
Ti11     Ce9    9.989   1_565     S
Ti11     Ti7    9.991   1_566     S
Ti11     Ce12    9.979   1_556     S
Ti11     Er13    10.012   .     S
Ti11     Ti8    10.028   1_565     S
Ti11     Ti8    10.028   1_566     S
Ce12     Ti7    9.989   1_565     S
Ce12     Ti11    9.979   1_554     S
Ce12     Ti8    9.989   1_565     S
Er13     Er14    9.991   1_455     S
Er13     V15    9.995   .     S
Er14     Er13    9.991   1_655     S
Er14     V15    9.995   1_655     S
V15     Er14    9.995   1_455     S
V15     Ce21    10.011   .     S
Er16     Er17    9.991   1_455     S
Er16     V18    9.995   .     S
Er17     Er16    9.991   1_655     S
Er17     V18    9.995   1_655     S
V18     Er17    9.995   1_455     S
V18     Ce24    10.011   .     S
Ti19     Ce21    9.979   1_554     S
Ti19     Ce24    9.989   .     S
Ti19     Ti23    9.991   1_454     S
Ti19     Ti22    10.028   .     S
Ti19     Ti22    10.028   1_554     S
Ti20     Ce21    9.979   1_655     S
Ti20     Ce24    9.989   1_655     S
Ti20     Ti22    9.991   1_655     S
Ti20     Ti23    10.028   .     S
Ti20     Ti23    10.028   1_554     S
Ce21     Ti19    9.979   1_556     S
Ce21     Ti20    9.979   1_455     S
Ce21     Ti23    9.989   1_455     S
Ce21     Ti22    9.989   .     S
Ti22     Ce24    9.979   .     S
Ti22     Ti20    9.991   1_455     S
Ti22     Ti19    10.028   1_556     S
Ti23     Ce21    9.989   1_655     S
Ti23     Ti19    9.991   1_656     S
Ti23     Ce24    9.979   1_656     S
Ti23     Ti20    10.028   1_556     S
Ce24     Ti23    9.979   1_454     S
Ce24     Ti20    9.989   1_455     S
