data_zmj
_audit_creation_date              2020-02-02
_audit_creation_method            'Pymatgen'
_symmetry_space_group_name_H-M    'P1'
_symmetry_Int_Tables_number       1
loop_
_symmetry_equiv_pos_as_xyz
  x,y,z
_cell_length_a                    43.8179
_cell_length_b                    43.8179
_cell_length_c                    46.3493
_cell_angle_alpha                 90.0
_cell_angle_beta                 90.0
_cell_angle_gamma                 90.0
loop_
_atom_site_label
_atom_site_type_symbol
_atom_site_fract_x
_atom_site_fract_y
_atom_site_fract_z
V1     V     0.6162   0.0   0.0
V2     V     0.3839   0.0   0.0
V3     V     0.0   0.6162   0.0
V4     V     0.0   0.3839   0.0
Ce5     Ce     0.3859   0.126   0.1799
Ce6     Ce     0.6141   0.126   0.1799
Ce7     Ce     0.3859   0.874   0.1799
Ce8     Ce     0.6141   0.874   0.1799
Ce9     Ce     0.126   0.3859   0.1799
Ce10     Ce     0.126   0.6141   0.1799
Ce11     Ce     0.874   0.3859   0.1799
Ce12     Ce     0.874   0.6141   0.1799
Ce13     Ce     0.126   0.3859   0.8201
Ce14     Ce     0.126   0.6141   0.8201
Ce15     Ce     0.3859   0.874   0.8201
Ce16     Ce     0.6141   0.874   0.8201
Ce17     Ce     0.874   0.3859   0.8201
Ce18     Ce     0.874   0.6141   0.8201
Ce19     Ce     0.3859   0.126   0.8201
Ce20     Ce     0.6141   0.126   0.8201
Er21     Er     0.0   0.808   0.6079
Ti22     Ti     0.8135   0.8135   0.7321
Er23     Er     0.808   0.0   0.6079
Er24     Er     0.192   0.0   0.6079
Ti25     Ti     0.1865   0.8135   0.7321
Er26     Er     0.0   0.192   0.6079
Ti27     Ti     0.8135   0.1865   0.7321
Ti28     Ti     0.1865   0.1865   0.7321
Er29     Er     0.808   0.0   0.3921
Ti30     Ti     0.8135   0.8135   0.2679
Er31     Er     0.0   0.808   0.3921
Er32     Er     0.192   0.0   0.3921
Ti33     Ti     0.1865   0.8135   0.2679
Ti34     Ti     0.8135   0.1865   0.2679
Er35     Er     0.0   0.192   0.3921
Ti36     Ti     0.1865   0.1865   0.2679
loop_
_geom_bond_atom_site_label_1
_geom_bond_atom_site_label_2
_geom_bond_distance
_geom_bond_site_symmetry_2
_ccdc_geom_bond_type
V1     Ce8    10.0   1_545     S
V1     Ce6    10.0   .     S
V1     Ce16    10.0   1_544     S
V1     Ce20    10.0   1_554     S
V2     Ce7    10.0   1_545     S
V2     Ce15    10.0   1_544     S
V2     Ce5    10.0   .     S
V2     Ce19    10.0   1_554     S
V3     Ce12    10.0   1_455     S
V3     Ce18    10.0   1_454     S
V3     Ce10    10.0   .     S
V3     Ce14    10.0   1_554     S
V4     Ce11    10.0   1_455     S
V4     Ce9    10.0   .     S
V4     Ce17    10.0   1_454     S
V4     Ce13    10.0   1_554     S
Ce5     Ti36    10.0   .     S
Ce5     Ce6    10.0   .     S
Ce6     Ti34    10.0   .     S
Ce7     V2    10.0   1_565     S
Ce7     Ti33    10.0   .     S
Ce7     Ce8    10.0   .     S
Ce8     V1    10.0   1_565     S
Ce8     Ti30    10.0   .     S
Ce9     Ti36    10.0   .     S
Ce9     Ce10    10.0   .     S
Ce10     Ti33    10.0   .     S
Ce11     V4    10.0   1_655     S
Ce11     Ti34    10.0   .     S
Ce11     Ce12    10.0   .     S
Ce12     V3    10.0   1_655     S
Ce12     Ti30    10.0   .     S
Ce13     V4    10.0   1_556     S
Ce13     Ti28    10.0   .     S
Ce13     Ce14    10.0   .     S
Ce14     V3    10.0   1_556     S
Ce14     Ti25    10.0   .     S
Ce15     V2    10.0   1_566     S
Ce15     Ti25    10.0   .     S
Ce15     Ce16    10.0   .     S
Ce16     V1    10.0   1_566     S
Ce16     Ti22    10.0   .     S
Ce17     V4    10.0   1_656     S
Ce17     Ti27    10.0   .     S
Ce17     Ce18    10.0   .     S
Ce18     V3    10.0   1_656     S
Ce18     Ti22    10.0   .     S
Ce19     V2    10.0   1_556     S
Ce19     Ti28    10.0   .     S
Ce19     Ce20    10.0   .     S
Ce20     V1    10.0   1_556     S
Ce20     Ti27    10.0   .     S
Er21     Ti22    10.0   1_455     S
Er21     Ti25    10.0   .     S
Er21     Er31    10.0   .     S
Ti22     Er21    10.0   1_655     S
Ti22     Er23    10.0   1_565     S
Er23     Ti22    10.0   1_545     S
Er23     Ti27    10.0   .     S
Er23     Er29    10.0   .     S
Er24     Ti25    10.0   1_545     S
Er24     Ti28    10.0   .     S
Er24     Er32    10.0   .     S
Ti25     Er24    10.0   1_565     S
Er26     Ti27    10.0   1_455     S
Er26     Ti28    10.0   .     S
Er26     Er35    10.0   .     S
Ti27     Er26    10.0   1_655     S
Er29     Ti30    10.0   1_545     S
Er29     Ti34    10.0   .     S
Ti30     Er29    10.0   1_565     S
Ti30     Er31    10.0   1_655     S
Er31     Ti30    10.0   1_455     S
Er31     Ti33    10.0   .     S
Er32     Ti33    10.0   1_545     S
Er32     Ti36    10.0   .     S
Ti33     Er32    10.0   1_565     S
Ti34     Er35    10.0   1_655     S
Er35     Ti34    10.0   1_455     S
Er35     Ti36    10.0   .     S
