data_zni
_audit_creation_date              2020-02-02
_audit_creation_method            'Pymatgen'
_symmetry_space_group_name_H-M    'P1'
_symmetry_Int_Tables_number       1
loop_
_symmetry_equiv_pos_as_xyz
  x,y,z
_cell_length_a                    42.1148
_cell_length_b                    42.1148
_cell_length_c                    19.155
_cell_angle_alpha                 90.0
_cell_angle_beta                 90.0
_cell_angle_gamma                 90.0
loop_
_atom_site_label
_atom_site_type_symbol
_atom_site_fract_x
_atom_site_fract_y
_atom_site_fract_z
V1     V     0.431   0.5977   0.3984
V2     V     0.3477   0.681   0.8516
V3     V     0.3477   0.819   0.3516
V4     V     0.431   0.9023   0.8984
V5     V     0.569   0.5977   0.8984
V6     V     0.6523   0.681   0.3516
V7     V     0.6523   0.819   0.8516
V8     V     0.569   0.9023   0.3984
V9     V     0.069   0.5977   0.6016
V10     V     0.1523   0.681   0.1484
V11     V     0.069   0.9023   0.1016
V12     V     0.1523   0.819   0.6484
V13     V     0.8477   0.681   0.6484
V14     V     0.931   0.5977   0.1016
V15     V     0.8477   0.819   0.1484
V16     V     0.931   0.9023   0.6016
V17     V     0.931   0.4023   0.3984
V18     V     0.8477   0.319   0.8516
V19     V     0.931   0.0977   0.8984
V20     V     0.8477   0.181   0.3516
V21     V     0.1523   0.181   0.8516
V22     V     0.069   0.0977   0.3984
V23     V     0.069   0.4023   0.8984
V24     V     0.1523   0.319   0.3516
V25     V     0.431   0.4023   0.1016
V26     V     0.3477   0.319   0.6484
V27     V     0.6523   0.319   0.1484
V28     V     0.569   0.4023   0.6016
V29     V     0.6523   0.181   0.6484
V30     V     0.569   0.0977   0.1016
V31     V     0.3477   0.181   0.1484
V32     V     0.431   0.0977   0.6016
loop_
_geom_bond_atom_site_label_1
_geom_bond_atom_site_label_2
_geom_bond_distance
_geom_bond_site_symmetry_2
_ccdc_geom_bond_type
V1     V3    10.0   .     S
V1     V2    10.0   .     S
V1     V6    10.0   .     S
V1     V25    10.0   .     S
V2     V5    10.0   .     S
V2     V4    10.0   .     S
V2     V10    10.0   1_556     S
V3     V8    10.0   .     S
V3     V4    10.0   1_554     S
V3     V12    10.0   .     S
V4     V3    10.0   1_556     S
V4     V7    10.0   .     S
V4     V32    10.0   1_565     S
V5     V7    10.0   .     S
V5     V6    10.0   1_556     S
V5     V28    10.0   .     S
V6     V5    10.0   1_554     S
V6     V8    10.0   .     S
V6     V13    10.0   .     S
V7     V8    10.0   .     S
V7     V15    10.0   1_556     S
V8     V30    10.0   1_565     S
V9     V12    10.0   .     S
V9     V10    10.0   .     S
V9     V13    10.0   1_455     S
V9     V23    10.0   .     S
V10     V14    10.0   1_455     S
V10     V11    10.0   .     S
V10     V2    10.0   1_554     S
V11     V12    10.0   1_554     S
V11     V15    10.0   1_455     S
V11     V22    10.0   1_565     S
V12     V16    10.0   1_455     S
V12     V11    10.0   1_556     S
V13     V9    10.0   1_655     S
V13     V14    10.0   1_556     S
V13     V16    10.0   .     S
V14     V10    10.0   1_655     S
V14     V15    10.0   .     S
V14     V13    10.0   1_554     S
V14     V17    10.0   .     S
V15     V7    10.0   1_554     S
V15     V11    10.0   1_655     S
V15     V16    10.0   .     S
V16     V12    10.0   1_655     S
V16     V19    10.0   1_565     S
V17     V20    10.0   .     S
V17     V18    10.0   .     S
V17     V24    10.0   1_655     S
V18     V23    10.0   1_655     S
V18     V19    10.0   .     S
V18     V27    10.0   1_556     S
V19     V16    10.0   1_545     S
V19     V20    10.0   1_556     S
V19     V21    10.0   1_655     S
V20     V22    10.0   1_655     S
V20     V19    10.0   1_554     S
V20     V29    10.0   .     S
V21     V19    10.0   1_455     S
V21     V22    10.0   .     S
V21     V23    10.0   .     S
V21     V31    10.0   1_556     S
V22     V11    10.0   1_545     S
V22     V20    10.0   1_455     S
V22     V24    10.0   .     S
V23     V18    10.0   1_455     S
V23     V24    10.0   1_556     S
V24     V17    10.0   1_455     S
V24     V23    10.0   1_554     S
V24     V26    10.0   .     S
V25     V31    10.0   .     S
V25     V26    10.0   1_554     S
V25     V27    10.0   .     S
V26     V28    10.0   .     S
V26     V25    10.0   1_556     S
V26     V32    10.0   .     S
V27     V28    10.0   .     S
V27     V30    10.0   .     S
V27     V18    10.0   1_554     S
V28     V29    10.0   .     S
V29     V32    10.0   .     S
V29     V30    10.0   1_556     S
V30     V8    10.0   1_545     S
V30     V29    10.0   1_554     S
V30     V31    10.0   .     S
V31     V32    10.0   .     S
V31     V21    10.0   1_554     S
V32     V4    10.0   1_545     S
