data_znp
_audit_creation_date              2020-02-02
_audit_creation_method            'Pymatgen'
_symmetry_space_group_name_H-M    'P1'
_symmetry_Int_Tables_number       1
loop_
_symmetry_equiv_pos_as_xyz
  x,y,z
_cell_length_a                    16.5365
_cell_length_b                    73.4192
_cell_length_c                    31.1619
_cell_angle_alpha                 90.0
_cell_angle_beta                 90.0
_cell_angle_gamma                 90.0
loop_
_atom_site_label
_atom_site_type_symbol
_atom_site_fract_x
_atom_site_fract_y
_atom_site_fract_z
V1     V     0.0   0.7752   0.75
V2     V     0.0   0.2248   0.25
Ce3     Ce     0.5   0.6279   0.4757
Er4     Er     0.5   0.6986   0.75
Ce5     Ce     0.5   0.6279   0.0243
Ce6     Ce     0.5   0.3721   0.9757
Er7     Er     0.5   0.3014   0.25
Ce8     Ce     0.5   0.3721   0.5243
Ti9     Ti     0.0   0.5565   0.4104
Ti10     Ti     0.0   0.5565   0.0896
Ti11     Ti     0.0   0.4435   0.5896
Ti12     Ti     0.0   0.4435   0.9104
V13     V     0.5   0.7248   0.25
V14     V     0.5   0.2752   0.75
Ce15     Ce     0.0   0.8721   0.9757
Er16     Er     0.0   0.8014   0.25
Ce17     Ce     0.0   0.8721   0.5243
Ce18     Ce     0.0   0.1279   0.4757
Er19     Er     0.0   0.1986   0.75
Ce20     Ce     0.0   0.1279   0.0243
Ti21     Ti     0.5   0.0565   0.4104
Ti22     Ti     0.5   0.0565   0.0896
Ti23     Ti     0.5   0.9435   0.5896
Ti24     Ti     0.5   0.9435   0.9104
loop_
_geom_bond_atom_site_label_1
_geom_bond_atom_site_label_2
_geom_bond_distance
_geom_bond_site_symmetry_2
_ccdc_geom_bond_type
V1     Er4    10.0   .     S
V1     Er4    10.0   1_455     S
V1     Ce15    10.0   .     S
V1     Ce17    10.0   .     S
V2     Er7    10.0   .     S
V2     Er7    10.0   1_455     S
V2     Ce18    10.0   .     S
V2     Ce20    10.0   .     S
Ce3     V13    10.0   .     S
Ce3     Ti9    10.0   .     S
Ce3     Ti9    10.0   1_655     S
Ce3     Er4    10.0   .     S
Er4     V1    10.0   1_655     S
Er4     Ce5    10.0   1_556     S
Ce5     Er4    10.0   1_554     S
Ce5     V13    10.0   .     S
Ce5     Ti10    10.0   1_655     S
Ce5     Ti10    10.0   .     S
Ce6     V14    10.0   .     S
Ce6     Ti12    10.0   1_655     S
Ce6     Ti12    10.0   .     S
Ce6     Er7    10.0   1_556     S
Er7     V2    10.0   1_655     S
Er7     Ce8    10.0   .     S
Er7     Ce6    10.0   1_554     S
Ce8     V14    10.0   .     S
Ce8     Ti11    10.0   1_655     S
Ce8     Ti11    10.0   .     S
Ti9     Ce3    10.0   1_455     S
Ti9     Ti10    10.0   .     S
Ti9     Ti11    10.0   .     S
Ti10     Ce5    10.0   1_455     S
Ti10     Ti12    10.0   1_554     S
Ti11     Ce8    10.0   1_455     S
Ti11     Ti12    10.0   .     S
Ti12     Ce6    10.0   1_455     S
Ti12     Ti10    10.0   1_556     S
V13     Er16    10.0   1_655     S
V13     Er16    10.0   .     S
V14     Er19    10.0   1_655     S
V14     Er19    10.0   .     S
Ce15     Ti24    10.0   .     S
Ce15     Ti24    10.0   1_455     S
Ce15     Er16    10.0   1_556     S
Er16     V13    10.0   1_455     S
Er16     Ce17    10.0   .     S
Er16     Ce15    10.0   1_554     S
Ce17     Ti23    10.0   .     S
Ce17     Ti23    10.0   1_455     S
Ce18     Ti21    10.0   .     S
Ce18     Ti21    10.0   1_455     S
Ce18     Er19    10.0   .     S
Er19     V14    10.0   1_455     S
Er19     Ce20    10.0   1_556     S
Ce20     Er19    10.0   1_554     S
Ce20     Ti22    10.0   .     S
Ce20     Ti22    10.0   1_455     S
Ti21     Ce18    10.0   1_655     S
Ti21     Ti22    10.0   .     S
Ti21     Ti23    10.0   1_545     S
Ti22     Ce20    10.0   1_655     S
Ti22     Ti24    10.0   1_544     S
Ti23     Ce17    10.0   1_655     S
Ti23     Ti24    10.0   .     S
Ti23     Ti21    10.0   1_565     S
Ti24     Ce15    10.0   1_655     S
Ti24     Ti22    10.0   1_566     S
