data_zra
_audit_creation_date              2020-02-02
_audit_creation_method            'Pymatgen'
_symmetry_space_group_name_H-M    'P1'
_symmetry_Int_Tables_number       1
loop_
_symmetry_equiv_pos_as_xyz
  x,y,z
_cell_length_a                    17.2983
_cell_length_b                    17.2983
_cell_length_c                    17.7121
_cell_angle_alpha                 90.0
_cell_angle_beta                 90.0
_cell_angle_gamma                 120.0
loop_
_atom_site_label
_atom_site_type_symbol
_atom_site_fract_x
_atom_site_fract_y
_atom_site_fract_z
Er1     Er     0.6667   0.3333   0.5
Er2     Er     0.3333   0.6667   0.5
Ti3     Ti     0.0   0.0   0.2848
Ti4     Ti     0.0   0.0   0.7152
V5     V     0.0   0.5   0.0
V6     V     0.5   0.5   0.0
V7     V     0.5   0.0   0.0
loop_
_geom_bond_atom_site_label_1
_geom_bond_atom_site_label_2
_geom_bond_distance
_geom_bond_site_symmetry_2
_ccdc_geom_bond_type
Er1     V5    10.167   1_656     S
Er1     V6    10.167   1_556     S
Er1     V7    10.167   1_556     S
Er1     V6    10.167   .     S
Er1     V5    10.167   1_655     S
Er1     V7    10.167   .     S
Er1     Ti3    10.69   1_655     S
Er1     Ti4    10.69   1_655     S
Er1     Ti3    10.69   1_665     S
Er1     Ti4    10.69   1_665     S
Er1     Ti3    10.69   .     S
Er1     Ti4    10.69   .     S
Er1     Er2    9.987   1_655     S
Er1     Er2    9.987   .     S
Er1     Er2    9.987   1_545     S
Er2     V7    10.167   1_566     S
Er2     V6    10.167   1_556     S
Er2     V5    10.167   1_556     S
Er2     V7    10.167   1_565     S
Er2     V6    10.167   .     S
Er2     V5    10.167   .     S
Er2     Ti3    10.69   1_665     S
Er2     Ti4    10.69   1_665     S
Er2     Ti3    10.69   .     S
Er2     Ti4    10.69   .     S
Er2     Ti3    10.69   1_565     S
Er2     Ti4    10.69   1_565     S
Er2     Er1    9.987   1_455     S
Er2     Er1    9.987   1_565     S
Ti3     Er1    10.69   1_455     S
Ti3     Er2    10.69   1_445     S
Ti3     Er1    10.69   1_445     S
Ti3     Er2    10.69   1_545     S
Ti3     Ti4    7.624   .     S
Ti3     Ti4    10.088   1_554     S
Ti3     V6    10.012   1_445     S
Ti3     V5    10.012   1_545     S
Ti3     V5    10.012   .     S
Ti3     V7    10.012   1_455     S
Ti3     V7    10.012   .     S
Ti3     V6    10.012   .     S
Ti4     Er1    10.69   1_455     S
Ti4     Er2    10.69   1_445     S
Ti4     Er1    10.69   1_445     S
Ti4     Er2    10.69   1_545     S
Ti4     Ti3    10.088   1_556     S
Ti4     V6    10.012   1_446     S
Ti4     V5    10.012   1_546     S
Ti4     V7    10.012   1_456     S
Ti4     V7    10.012   1_556     S
Ti4     V6    10.012   1_556     S
Ti4     V5    10.012   1_556     S
V5     V6    8.649   .     S
V5     V7    8.649   1_565     S
V5     V6    8.649   1_455     S
V5     V7    8.649   1_455     S
V5     Er1    10.167   1_454     S
V5     Er2    10.167   1_554     S
V5     Er1    10.167   1_455     S
V5     Ti3    10.012   1_565     S
V5     Ti4    10.012   1_564     S
V5     Ti4    10.012   1_554     S
V6     V5    8.649   1_655     S
V6     V7    8.649   1_565     S
V6     V7    8.649   .     S
V6     Er1    10.167   1_554     S
V6     Er2    10.167   1_554     S
V6     Ti3    10.012   1_665     S
V6     Ti4    10.012   1_664     S
V6     Ti4    10.012   1_554     S
V7     V5    8.649   1_545     S
V7     V6    8.649   1_545     S
V7     V5    8.649   1_655     S
V7     Er1    10.167   1_554     S
V7     Er2    10.167   1_544     S
V7     Er2    10.167   1_545     S
V7     Ti3    10.012   1_655     S
V7     Ti4    10.012   1_654     S
V7     Ti4    10.012   1_554     S
