data_zrade
_audit_creation_date              2020-02-02
_audit_creation_method            'Pymatgen'
_symmetry_space_group_name_H-M    'P1'
_symmetry_Int_Tables_number       1
loop_
_symmetry_equiv_pos_as_xyz
  x,y,z
_cell_length_a                    52.3837
_cell_length_b                    52.3837
_cell_length_c                    53.5313
_cell_angle_alpha                 90.0
_cell_angle_beta                 90.0
_cell_angle_gamma                 120.0
loop_
_atom_site_label
_atom_site_type_symbol
_atom_site_fract_x
_atom_site_fract_y
_atom_site_fract_z
H1     H     0.3139   0.3139   0.4091
H2     H     0.3139   0.3139   0.5909
H3     H     0.0   0.6861   0.4091
H4     H     0.0   0.6861   0.5909
H5     H     0.3139   0.0   0.4091
H6     H     0.3139   0.0   0.5909
H7     H     0.6861   0.0   0.4091
H8     H     0.6861   0.0   0.5909
H9     H     0.0   0.3139   0.4091
H10     H     0.0   0.3139   0.5909
Ti11     Ti     0.0   0.1876   0.0
Ti12     Ti     0.1876   0.0   0.0
Ti13     Ti     0.1876   0.1876   0.0
Ti14     Ti     0.8124   0.8124   0.0
Ti15     Ti     0.8124   0.0   0.0
Ti16     Ti     0.0   0.8124   0.0
Er17     Er     0.457   0.7285   0.1482
Ce18     Ce     0.6618   0.8309   0.0968
Ce19     Ce     0.1691   0.3382   0.0968
Er20     Er     0.2715   0.543   0.1482
Ce21     Ce     0.1691   0.8309   0.0968
Er22     Er     0.2715   0.7285   0.1482
Er23     Er     0.457   0.7285   0.8518
Ce24     Ce     0.6618   0.8309   0.9032
Ce25     Ce     0.1691   0.3382   0.9032
Er26     Er     0.2715   0.543   0.8518
Ce27     Ce     0.1691   0.8309   0.9032
Er28     Er     0.2715   0.7285   0.8518
V29     V     0.3333   0.6667   0.0
He30     He     0.2987   0.8921   0.7473
He31     He     0.2987   0.4066   0.7473
He32     He     0.1079   0.4066   0.7473
He33     He     0.5934   0.7013   0.7473
He34     He     0.2987   0.8921   0.2527
He35     He     0.5934   0.8921   0.7473
He36     He     0.1079   0.7013   0.7473
He37     He     0.1079   0.4066   0.2527
He38     He     0.2987   0.4066   0.2527
He39     He     0.5934   0.7013   0.2527
He40     He     0.5934   0.8921   0.2527
He41     He     0.1079   0.7013   0.2527
Er42     Er     0.7285   0.457   0.1482
Ce43     Ce     0.8309   0.6618   0.0968
Ce44     Ce     0.3382   0.1691   0.0968
Er45     Er     0.543   0.2715   0.1482
Ce46     Ce     0.8309   0.1691   0.0968
Er47     Er     0.7285   0.2715   0.1482
Er48     Er     0.7285   0.457   0.8518
Ce49     Ce     0.8309   0.6618   0.9032
Ce50     Ce     0.3382   0.1691   0.9032
Er51     Er     0.543   0.2715   0.8518
Ce52     Ce     0.8309   0.1691   0.9032
Er53     Er     0.7285   0.2715   0.8518
V54     V     0.6667   0.3333   0.0
He55     He     0.8921   0.5934   0.7473
He56     He     0.4066   0.1079   0.7473
He57     He     0.4066   0.2987   0.7473
He58     He     0.7013   0.1079   0.7473
He59     He     0.8921   0.5934   0.2527
He60     He     0.7013   0.1079   0.2527
He61     He     0.4066   0.2987   0.2527
He62     He     0.8921   0.2987   0.7473
He63     He     0.4066   0.1079   0.2527
He64     He     0.7013   0.5934   0.7473
He65     He     0.8921   0.2987   0.2527
He66     He     0.7013   0.5934   0.2527
H67     H     0.6861   0.6861   0.4091
H68     H     0.6861   0.6861   0.5909
Li69     Li     0.0   0.5   0.3377
Li70     Li     0.5   0.0   0.3377
Li71     Li     0.5   0.0   0.6623
Li72     Li     0.0   0.5   0.6623
Li73     Li     0.5   0.5   0.3377
Li74     Li     0.5   0.5   0.6623
S75     S     0.1148   0.2296   0.5
S76     S     0.1148   0.8852   0.5
S77     S     0.2296   0.1148   0.5
S78     S     0.8852   0.1148   0.5
S79     S     0.7704   0.8852   0.5
S80     S     0.8852   0.7704   0.5
loop_
_geom_bond_atom_site_label_1
_geom_bond_atom_site_label_2
_geom_bond_distance
_geom_bond_site_symmetry_2
_ccdc_geom_bond_type
H1     H2    9.734   .     S
H1     He61    9.909   .     S
H1     He38    9.909   .     S
H1     Li73    10.473   .     S
H1     S75    10.29   .     S
H1     S77    10.29   .     S
H2     He31    9.909   .     S
H2     He57    9.909   .     S
H2     Li74    10.473   .     S
H2     S75    10.29   .     S
H2     S77    10.29   .     S
H3     H4    9.734   .     S
H3     He59    9.909   1_455     S
H3     He41    9.909   .     S
H3     Li69    10.473   .     S
H3     S76    10.29   .     S
H3     S80    10.29   1_455     S
H4     He36    9.909   .     S
H4     He55    9.909   1_455     S
H4     Li72    10.473   .     S
H4     S76    10.29   .     S
H4     S80    10.29   1_455     S
H5     H6    9.734   .     S
H5     He34    9.909   1_545     S
H5     He63    9.909   .     S
H5     Li70    10.473   .     S
H5     S76    10.29   1_545     S
H5     S77    10.29   .     S
H6     He56    9.909   .     S
H6     He30    9.909   1_545     S
H6     Li71    10.473   .     S
H6     S76    10.29   1_545     S
H6     S77    10.29   .     S
H7     H8    9.734   .     S
H7     He60    9.909   .     S
H7     He40    9.909   1_545     S
H7     Li70    10.473   .     S
H7     S78    10.29   .     S
H7     S79    10.29   1_545     S
H8     He35    9.909   1_545     S
H8     He58    9.909   .     S
H8     Li71    10.473   .     S
H8     S78    10.29   .     S
H8     S79    10.29   1_545     S
H9     H10    9.734   .     S
H9     He37    9.909   .     S
H9     He65    9.909   1_455     S
H9     Li69    10.473   .     S
H9     S78    10.29   1_455     S
H9     S75    10.29   .     S
H10     He62    9.909   1_455     S
H10     He32    9.909   .     S
H10     Li72    10.473   .     S
H10     S78    10.29   1_455     S
H10     S75    10.29   .     S
Ti11     Ce46    9.883   1_455     S
Ti11     Ce19    9.883   .     S
Ti11     Ce52    9.883   1_454     S
Ti11     Ce25    9.883   1_554     S
Ti11     Ti15    9.829   1_455     S
Ti11     Ti13    9.829   .     S
Ti12     Ce44    9.883   .     S
Ti12     Ce50    9.883   1_554     S
Ti12     Ce21    9.883   1_545     S
Ti12     Ce27    9.883   1_544     S
Ti12     Ti16    9.829   1_545     S
Ti12     Ti13    9.829   .     S
Ti13     Ce44    9.883   .     S
Ti13     Ce19    9.883   .     S
Ti13     Ce25    9.883   1_554     S
Ti13     Ce50    9.883   1_554     S
Ti14     Ce18    9.883   .     S
Ti14     Ce24    9.883   1_554     S
Ti14     Ce43    9.883   .     S
Ti14     Ce49    9.883   1_554     S
Ti14     Ti15    9.829   1_565     S
Ti14     Ti16    9.829   1_655     S
Ti15     Ce18    9.883   1_545     S
Ti15     Ce24    9.883   1_544     S
Ti15     Ce46    9.883   .     S
Ti15     Ce52    9.883   1_554     S
Ti15     Ti11    9.829   1_655     S
Ti15     Ti14    9.829   1_545     S
Ti16     Ce21    9.883   .     S
Ti16     Ce43    9.883   1_455     S
Ti16     Ce27    9.883   1_554     S
Ti16     Ce49    9.883   1_454     S
Ti16     Ti12    9.829   1_565     S
Ti16     Ti14    9.829   1_455     S
Er17     He39    9.723   .     S
Er17     He40    9.723   .     S
Er17     Er22    9.72   .     S
Er17     Er20    9.72   .     S
Er17     V29    9.717   .     S
Er17     Ce18    9.688   .     S
Ce18     He39    10.208   .     S
Ce18     He40    10.208   .     S
Ce18     Ti15    9.883   1_565     S
Ce18     Ce24    10.367   1_554     S
Ce19     He37    10.208   .     S
Ce19     He38    10.208   .     S
Ce19     Ce25    10.367   1_554     S
Ce19     Er20    9.688   .     S
Er20     Er22    9.72   .     S
Er20     V29    9.717   .     S
Er20     He37    9.723   .     S
Er20     He38    9.723   .     S
Ce21     He41    10.208   .     S
Ce21     He34    10.208   .     S
Ce21     Ti12    9.883   1_565     S
Ce21     Ce27    10.367   1_554     S
Ce21     Er22    9.688   .     S
Er22     He41    9.723   .     S
Er22     He34    9.723   .     S
Er22     V29    9.717   .     S
Er23     He33    9.723   .     S
Er23     He35    9.723   .     S
Er23     Er28    9.72   .     S
Er23     Er26    9.72   .     S
Er23     V29    9.717   1_556     S
Er23     Ce24    9.688   .     S
Ce24     He33    10.208   .     S
Ce24     He35    10.208   .     S
Ce24     Ti15    9.883   1_566     S
Ce24     Ti14    9.883   1_556     S
Ce24     Ce18    10.367   1_556     S
Ce25     He31    10.208   .     S
Ce25     He32    10.208   .     S
Ce25     Ti13    9.883   1_556     S
Ce25     Ti11    9.883   1_556     S
Ce25     Ce19    10.367   1_556     S
Ce25     Er26    9.688   .     S
Er26     He31    9.723   .     S
Er26     He32    9.723   .     S
Er26     Er28    9.72   .     S
Er26     V29    9.717   1_556     S
Ce27     He36    10.208   .     S
Ce27     He30    10.208   .     S
Ce27     Ti16    9.883   1_556     S
Ce27     Ti12    9.883   1_566     S
Ce27     Ce21    10.367   1_556     S
Ce27     Er28    9.688   .     S
Er28     He36    9.723   .     S
Er28     He30    9.723   .     S
Er28     V29    9.717   1_556     S
V29     Er23    9.717   1_554     S
V29     Er28    9.717   1_554     S
V29     Er26    9.717   1_554     S
He30     Li71    10.21   1_565     S
He30     H6    9.909   1_565     S
He30     He36    9.997   .     S
He30     He56    9.787   1_565     S
He31     Li74    10.21   .     S
He31     He32    9.997   .     S
He31     He57    9.787   .     S
He32     Li72    10.21   .     S
He32     He62    9.787   1_455     S
He33     Li74    10.21   .     S
He33     H68    9.909   .     S
He33     He35    9.997   .     S
He33     He64    9.787   .     S
He34     Li70    10.21   1_565     S
He34     H5    9.909   1_565     S
He34     He41    9.997   .     S
He34     He63    9.787   1_565     S
He35     Li71    10.21   1_565     S
He35     H8    9.909   1_565     S
He35     He58    9.787   1_565     S
He36     Li72    10.21   .     S
He36     He55    9.787   1_455     S
He37     Li69    10.21   .     S
He37     He38    9.997   .     S
He37     He65    9.787   1_455     S
He38     Li73    10.21   .     S
He38     He61    9.787   .     S
He39     Li73    10.21   .     S
He39     H67    9.909   .     S
He39     He40    9.997   .     S
He39     He66    9.787   .     S
He40     Li70    10.21   1_565     S
He40     H7    9.909   1_565     S
He40     He60    9.787   1_565     S
He41     Li69    10.21   .     S
He41     He59    9.787   1_455     S
Er42     He59    9.723   .     S
Er42     He66    9.723   .     S
Er42     Er45    9.72   .     S
Er42     Er47    9.72   .     S
Er42     V54    9.717   .     S
Er42     Ce43    9.688   .     S
Ce43     He59    10.208   .     S
Ce43     He66    10.208   .     S
Ce43     Ti16    9.883   1_655     S
Ce43     Ce49    10.367   1_554     S
Ce44     He61    10.208   .     S
Ce44     He63    10.208   .     S
Ce44     Ce50    10.367   1_554     S
Ce44     Er45    9.688   .     S
Er45     He61    9.723   .     S
Er45     He63    9.723   .     S
Er45     Er47    9.72   .     S
Er45     V54    9.717   .     S
Ce46     He60    10.208   .     S
Ce46     He65    10.208   .     S
Ce46     Ti11    9.883   1_655     S
Ce46     Ce52    10.367   1_554     S
Ce46     Er47    9.688   .     S
Er47     V54    9.717   .     S
Er47     He60    9.723   .     S
Er47     He65    9.723   .     S
Er48     He55    9.723   .     S
Er48     He64    9.723   .     S
Er48     Er53    9.72   .     S
Er48     Er51    9.72   .     S
Er48     V54    9.717   1_556     S
Er48     Ce49    9.688   .     S
Ce49     He55    10.208   .     S
Ce49     He64    10.208   .     S
Ce49     Ti14    9.883   1_556     S
Ce49     Ti16    9.883   1_656     S
Ce49     Ce43    10.367   1_556     S
Ce50     He56    10.208   .     S
Ce50     He57    10.208   .     S
Ce50     Ti12    9.883   1_556     S
Ce50     Ti13    9.883   1_556     S
Ce50     Ce44    10.367   1_556     S
Ce50     Er51    9.688   .     S
Er51     He56    9.723   .     S
Er51     He57    9.723   .     S
Er51     Er53    9.72   .     S
Er51     V54    9.717   1_556     S
Ce52     He58    10.208   .     S
Ce52     He62    10.208   .     S
Ce52     Ti11    9.883   1_656     S
Ce52     Ti15    9.883   1_556     S
Ce52     Ce46    10.367   1_556     S
Ce52     Er53    9.688   .     S
Er53     He58    9.723   .     S
Er53     He62    9.723   .     S
Er53     V54    9.717   1_556     S
V54     Er48    9.717   1_554     S
V54     Er51    9.717   1_554     S
V54     Er53    9.717   1_554     S
He55     Li72    10.21   1_655     S
He55     H4    9.909   1_655     S
He55     He64    9.997   .     S
He55     He36    9.787   1_655     S
He56     Li71    10.21   .     S
He56     He57    9.997   .     S
He56     He30    9.787   1_545     S
He57     Li74    10.21   .     S
He58     Li71    10.21   .     S
He58     He62    9.997   .     S
He58     He35    9.787   1_545     S
He59     Li69    10.21   1_655     S
He59     H3    9.909   1_655     S
He59     He66    9.997   .     S
He59     He41    9.787   1_655     S
He60     Li70    10.21   .     S
He60     He65    9.997   .     S
He60     He40    9.787   1_545     S
He61     Li73    10.21   .     S
He61     He63    9.997   .     S
He62     Li72    10.21   1_655     S
He62     H10    9.909   1_655     S
He62     He32    9.787   1_655     S
He63     Li70    10.21   .     S
He63     He34    9.787   1_545     S
He64     Li74    10.21   .     S
He64     H68    9.909   .     S
He65     Li69    10.21   1_655     S
He65     H9    9.909   1_655     S
He65     He37    9.787   1_655     S
He66     Li73    10.21   .     S
He66     H67    9.909   .     S
H67     H68    9.734   .     S
H67     Li73    10.473   .     S
H67     S79    10.29   .     S
H67     S80    10.29   .     S
H68     Li74    10.473   .     S
H68     S79    10.29   .     S
H68     S80    10.29   .     S
Li69     He59    10.21   1_455     S
Li69     He65    10.21   1_455     S
Li70     He34    10.21   1_545     S
Li70     He40    10.21   1_545     S
Li71     He30    10.21   1_545     S
Li71     He35    10.21   1_545     S
Li72     He55    10.21   1_455     S
Li72     He62    10.21   1_455     S
S75     S78    10.416   1_455     S
S75     S77    10.416   .     S
S76     S77    10.416   1_565     S
S76     S80    10.416   1_455     S
S76     H5    10.29   1_565     S
S76     H6    10.29   1_565     S
S77     S76    10.416   1_545     S
S78     S75    10.416   1_655     S
S78     S79    10.416   1_545     S
S78     H10    10.29   1_655     S
S78     H9    10.29   1_655     S
S79     S80    10.416   .     S
S79     S78    10.416   1_565     S
S79     H8    10.29   1_565     S
S79     H7    10.29   1_565     S
S80     S76    10.416   1_655     S
S80     H3    10.29   1_655     S
S80     H4    10.29   1_655     S
