data_zxc
_audit_creation_date              2020-02-02
_audit_creation_method            'Pymatgen'
_symmetry_space_group_name_H-M    'P1'
_symmetry_Int_Tables_number       1
loop_
_symmetry_equiv_pos_as_xyz
  x,y,z
_cell_length_a                    25.1107
_cell_length_b                    25.1107
_cell_length_c                    76.7665
_cell_angle_alpha                 90.0
_cell_angle_beta                 90.0
_cell_angle_gamma                 120.0
loop_
_atom_site_label
_atom_site_type_symbol
_atom_site_fract_x
_atom_site_fract_y
_atom_site_fract_z
V1     V     0.0649   0.3333   0.0833
V2     V     0.6667   0.7316   0.0833
V3     V     0.2684   0.9351   0.0833
Ti4     Ti     0.6667   0.3333   0.0833
V5     V     0.7316   0.0649   0.9167
V6     V     0.3333   0.2684   0.9167
Ti7     Ti     0.3333   0.6667   0.9167
V8     V     0.9351   0.6667   0.9167
Er9     Er     0.0   0.0   0.0
V10     V     0.6018   0.6018   0.75
V11     V     0.3982   0.0   0.75
V12     V     0.0   0.3982   0.75
Ti13     Ti     0.0   0.0   0.75
Er14     Er     0.6667   0.3333   0.8333
V15     V     0.2684   0.3333   0.5833
V16     V     0.0649   0.7316   0.5833
V17     V     0.6667   0.9351   0.5833
Ti18     Ti     0.6667   0.3333   0.5833
Er19     Er     0.3333   0.6667   0.6667
V20     V     0.7316   0.6667   0.4167
V21     V     0.9351   0.2684   0.4167
V22     V     0.3333   0.0649   0.4167
Ti23     Ti     0.3333   0.6667   0.4167
Er24     Er     0.0   0.0   0.5
V25     V     0.6018   0.0   0.25
V26     V     0.3982   0.3982   0.25
V27     V     0.0   0.6018   0.25
Ti28     Ti     0.0   0.0   0.25
Er29     Er     0.3333   0.6667   0.1667
Er30     Er     0.6667   0.3333   0.3333
loop_
_geom_bond_atom_site_label_1
_geom_bond_atom_site_label_2
_geom_bond_distance
_geom_bond_site_symmetry_2
_ccdc_geom_bond_type
V1     Er9    10.0   .     S
V1     Er29    10.0   .     S
V1     Ti4    10.0   1_455     S
V2     Er9    10.0   1_665     S
V2     Er29    10.0   .     S
V2     Ti4    10.0   .     S
V3     Er9    10.0   1_565     S
V3     Er29    10.0   .     S
V3     Ti4    10.0   1_565     S
Ti4     V1    10.0   1_655     S
Ti4     V3    10.0   1_545     S
V5     Er9    10.0   1_656     S
V5     Er14    10.0   .     S
V5     Ti7    10.0   1_545     S
V6     Er9    10.0   1_556     S
V6     Er14    10.0   .     S
V6     Ti7    10.0   .     S
Ti7     V5    10.0   1_565     S
Ti7     V8    10.0   1_455     S
V8     Er9    10.0   1_666     S
V8     Er14    10.0   .     S
V8     Ti7    10.0   1_655     S
Er9     V2    10.0   1_445     S
Er9     V3    10.0   1_545     S
Er9     V5    10.0   1_454     S
Er9     V6    10.0   1_554     S
Er9     V8    10.0   1_444     S
V10     Er19    10.0   .     S
V10     Er14    10.0   .     S
V10     Ti13    10.0   1_665     S
V11     Er19    10.0   1_545     S
V11     Er14    10.0   .     S
V11     Ti13    10.0   .     S
V12     Er14    10.0   1_455     S
V12     Er19    10.0   .     S
V12     Ti13    10.0   .     S
Ti13     V10    10.0   1_445     S
Er14     V12    10.0   1_655     S
V15     Er24    10.0   .     S
V15     Er19    10.0   .     S
V15     Ti18    10.0   .     S
V16     Er24    10.0   1_565     S
V16     Er19    10.0   .     S
V16     Ti18    10.0   1_455     S
V17     Er24    10.0   1_665     S
V17     Er19    10.0   .     S
V17     Ti18    10.0   1_565     S
Ti18     V17    10.0   1_545     S
Ti18     V16    10.0   1_655     S
Er19     V11    10.0   1_565     S
V20     Er24    10.0   1_665     S
V20     Er30    10.0   .     S
V20     Ti23    10.0   .     S
V21     Er24    10.0   1_655     S
V21     Er30    10.0   .     S
V21     Ti23    10.0   1_655     S
V22     Er24    10.0   .     S
V22     Er30    10.0   .     S
V22     Ti23    10.0   1_545     S
Ti23     V22    10.0   1_565     S
Ti23     V21    10.0   1_455     S
Er24     V16    10.0   1_545     S
Er24     V17    10.0   1_445     S
Er24     V20    10.0   1_445     S
Er24     V21    10.0   1_455     S
V25     Er30    10.0   .     S
V25     Er29    10.0   1_545     S
V25     Ti28    10.0   1_655     S
V26     Er30    10.0   .     S
V26     Er29    10.0   .     S
V26     Ti28    10.0   .     S
V27     Er29    10.0   .     S
V27     Er30    10.0   1_455     S
V27     Ti28    10.0   1_565     S
Ti28     V27    10.0   1_545     S
Ti28     V25    10.0   1_455     S
Er29     V25    10.0   1_565     S
Er30     V27    10.0   1_655     S
