data_zxca
_audit_creation_date              2020-02-02
_audit_creation_method            'Pymatgen'
_symmetry_space_group_name_H-M    'P1'
_symmetry_Int_Tables_number       1
loop_
_symmetry_equiv_pos_as_xyz
  x,y,z
_cell_length_a                    57.3675
_cell_length_b                    57.3675
_cell_length_c                    164.7471
_cell_angle_alpha                 90.0
_cell_angle_beta                 90.0
_cell_angle_gamma                 120.0
loop_
_atom_site_label
_atom_site_type_symbol
_atom_site_fract_x
_atom_site_fract_y
_atom_site_fract_z
Er1     Er     0.7208   0.131   0.8971
Er2     Er     0.7977   0.0541   0.9362
V3     V     0.6083   0.9416   0.9167
Er4     Er     0.9459   0.7435   0.9362
Er5     Er     0.869   0.5898   0.8971
V6     V     0.0584   0.6667   0.9167
Er7     Er     0.2564   0.2023   0.9362
Er8     Er     0.4102   0.2792   0.8971
V9     V     0.3333   0.3917   0.9167
Ce10     Ce     0.3333   0.566   0.9167
Ce11     Ce     0.2327   0.6667   0.9167
Ce12     Ce     0.434   0.7673   0.9167
Ti13     Ti     0.9098   0.8915   0.4752
Ti14     Ti     0.0902   0.1085   0.5248
Ti15     Ti     0.8915   0.9817   0.5248
Ti16     Ti     0.9817   0.0902   0.4752
Ti17     Ti     0.1085   0.0183   0.4752
Ti18     Ti     0.0183   0.9098   0.5248
Er19     Er     0.7977   0.7435   0.4362
Er20     Er     0.7208   0.5898   0.3971
V21     V     0.6083   0.6667   0.4167
Er22     Er     0.2564   0.0541   0.4362
Er23     Er     0.4102   0.131   0.3971
V24     V     0.3333   0.9416   0.4167
Er25     Er     0.9459   0.2023   0.4362
Er26     Er     0.869   0.2792   0.3971
V27     V     0.0584   0.3917   0.4167
Ce28     Ce     0.2327   0.566   0.4167
Ce29     Ce     0.434   0.6667   0.4167
Ce30     Ce     0.3333   0.7673   0.4167
Ti31     Ti     0.7569   0.315   0.3581
Ti32     Ti     0.5581   0.2431   0.3581
Ti33     Ti     0.5764   0.3516   0.3086
Ti34     Ti     0.6484   0.2248   0.3086
Ti35     Ti     0.7752   0.4236   0.3086
Ti36     Ti     0.685   0.4419   0.3581
Ti37     Ti     0.9098   0.0183   0.9752
Ti38     Ti     0.8915   0.9098   0.0248
Ti39     Ti     0.9817   0.8915   0.9752
Ti40     Ti     0.1085   0.0902   0.9752
Ti41     Ti     0.0183   0.1085   0.0248
Ti42     Ti     0.0902   0.9817   0.0248
Er43     Er     0.0541   0.2564   0.0638
Er44     Er     0.131   0.4102   0.1029
V45     V     0.9416   0.3333   0.0833
Er46     Er     0.7435   0.7977   0.0638
Er47     Er     0.5898   0.7208   0.1029
V48     V     0.6667   0.6083   0.0833
Er49     Er     0.2023   0.9459   0.0638
Er50     Er     0.2792   0.869   0.1029
V51     V     0.3917   0.0584   0.0833
Ce52     Ce     0.566   0.2327   0.0833
Ce53     Ce     0.6667   0.434   0.0833
Ce54     Ce     0.7673   0.3333   0.0833
Ti55     Ti     0.315   0.7569   0.1419
Ti56     Ti     0.4419   0.685   0.1419
Ti57     Ti     0.4236   0.7752   0.1914
Ti58     Ti     0.2248   0.6484   0.1914
Ti59     Ti     0.2431   0.5581   0.1419
Ti60     Ti     0.3516   0.5764   0.1914
Er61     Er     0.4644   0.3875   0.2696
Er62     Er     0.3875   0.4644   0.2304
V63     V     0.275   0.275   0.25
Er64     Er     0.9231   0.5356   0.2696
Er65     Er     0.0769   0.6125   0.2304
V66     V     0.0   0.725   0.25
Er67     Er     0.6125   0.0769   0.2696
Er68     Er     0.5356   0.9231   0.2304
V69     V     0.725   0.0   0.25
Ce70     Ce     0.0   0.8994   0.25
Ce71     Ce     0.8994   0.0   0.25
Ce72     Ce     0.1006   0.1006   0.25
Ti73     Ti     0.5581   0.315   0.8581
Ti74     Ti     0.7752   0.3516   0.8086
Ti75     Ti     0.5764   0.2248   0.8086
Ti76     Ti     0.685   0.2431   0.8581
Ti77     Ti     0.6484   0.4236   0.8086
Ti78     Ti     0.7569   0.4419   0.8581
Er79     Er     0.131   0.7208   0.6029
Er80     Er     0.0541   0.7977   0.5638
V81     V     0.9416   0.6083   0.5833
Er82     Er     0.2792   0.4102   0.6029
Er83     Er     0.2023   0.2564   0.5638
V84     V     0.3917   0.3333   0.5833
Er85     Er     0.7435   0.9459   0.5638
Er86     Er     0.5898   0.869   0.6029
V87     V     0.6667   0.0584   0.5833
Ce88     Ce     0.6667   0.2327   0.5833
Ce89     Ce     0.566   0.3333   0.5833
Ce90     Ce     0.7673   0.434   0.5833
Ti91     Ti     0.4419   0.7569   0.6419
Ti92     Ti     0.315   0.5581   0.6419
Ti93     Ti     0.2431   0.685   0.6419
Ti94     Ti     0.3516   0.7752   0.6914
Ti95     Ti     0.4236   0.6484   0.6914
Ti96     Ti     0.2248   0.5764   0.6914
Er97     Er     0.6125   0.5356   0.7696
Er98     Er     0.5356   0.6125   0.7304
V99     V     0.725   0.725   0.75
Er100     Er     0.9231   0.3875   0.7696
Er101     Er     0.0769   0.4644   0.7304
V102     V     0.0   0.275   0.75
Er103     Er     0.3875   0.9231   0.7304
Er104     Er     0.4644   0.0769   0.7696
V105     V     0.275   0.0   0.75
Ce106     Ce     0.8994   0.8994   0.75
Ce107     Ce     0.1006   0.0   0.75
Ce108     Ce     0.0   0.1006   0.75
loop_
_geom_bond_atom_site_label_1
_geom_bond_atom_site_label_2
_geom_bond_distance
_geom_bond_site_symmetry_2
_ccdc_geom_bond_type
Er1     Er2    10.0   .     S
Er1     Ti76    10.0   .     S
Er1     V3    10.0   1_545     S
Er2     Ti37    10.0   .     S
Er2     V3    10.0   1_545     S
V3     Er1    10.0   1_565     S
V3     Er2    10.0   1_565     S
V3     Ce12    10.0   .     S
Er4     Er5    10.0   .     S
Er4     Ti39    10.0   .     S
Er4     V6    10.0   1_655     S
Er5     Ti78    10.0   .     S
Er5     V6    10.0   1_655     S
V6     Er5    10.0   1_455     S
V6     Er4    10.0   1_455     S
V6     Ce11    10.0   .     S
Er7     Er8    10.0   .     S
Er7     Ti40    10.0   .     S
Er7     V9    10.0   .     S
Er8     Ti73    10.0   .     S
Er8     V9    10.0   .     S
V9     Ce10    10.0   .     S
Ce10     Ce12    10.0   .     S
Ce10     Ce11    10.0   .     S
Ce11     Ce12    10.0   .     S
Ti13     Ti15    10.0   .     S
Ti13     Ti16    10.0   1_565     S
Ti13     Ti17    10.0   1_665     S
Ti13     Ti18    10.0   1_655     S
Ti13     Er19    10.0   .     S
Ti14     Ti17    10.0   .     S
Ti14     Ti18    10.0   1_545     S
Ti14     Ti15    10.0   1_445     S
Ti14     Ti16    10.0   1_455     S
Ti14     Er83    10.0   .     S
Ti15     Ti16    10.0   1_565     S
Ti15     Ti14    10.0   1_665     S
Ti15     Ti18    10.0   1_655     S
Ti15     Er85    10.0   .     S
Ti16     Ti13    10.0   1_545     S
Ti16     Ti15    10.0   1_545     S
Ti16     Ti14    10.0   1_655     S
Ti16     Ti17    10.0   1_655     S
Ti16     Er25    10.0   .     S
Ti17     Ti16    10.0   1_455     S
Ti17     Ti18    10.0   1_545     S
Ti17     Ti13    10.0   1_445     S
Ti17     Er22    10.0   .     S
Ti18     Ti14    10.0   1_565     S
Ti18     Ti17    10.0   1_565     S
Ti18     Ti13    10.0   1_455     S
Ti18     Ti15    10.0   1_455     S
Ti18     Er80    10.0   .     S
Er19     Er20    10.0   .     S
Er19     V21    10.0   .     S
Er20     Ti36    10.0   .     S
Er20     V21    10.0   .     S
V21     Ce29    10.0   .     S
Er22     Er23    10.0   .     S
Er22     V24    10.0   1_545     S
Er23     Ti32    10.0   .     S
Er23     V24    10.0   1_545     S
V24     Er22    10.0   1_565     S
V24     Er23    10.0   1_565     S
V24     Ce30    10.0   .     S
Er25     Er26    10.0   .     S
Er25     V27    10.0   1_655     S
Er26     Ti31    10.0   .     S
Er26     V27    10.0   1_655     S
V27     Er25    10.0   1_455     S
V27     Er26    10.0   1_455     S
V27     Ce28    10.0   .     S
Ce28     Ce30    10.0   .     S
Ce28     Ce29    10.0   .     S
Ce29     Ce30    10.0   .     S
Ti31     Ti35    10.0   .     S
Ti31     Ti36    10.0   .     S
Ti31     Ti32    10.0   .     S
Ti31     Ti34    10.0   .     S
Ti32     Ti34    10.0   .     S
Ti32     Ti33    10.0   .     S
Ti32     Ti36    10.0   .     S
Ti33     Ti34    10.0   .     S
Ti33     Ti35    10.0   .     S
Ti33     Ti36    10.0   .     S
Ti33     Er61    10.0   .     S
Ti34     Ti35    10.0   .     S
Ti34     Er67    10.0   .     S
Ti35     Ti36    10.0   .     S
Ti35     Er64    10.0   .     S
Ti37     Ti38    10.0   1_546     S
Ti37     Ti39    10.0   1_545     S
Ti37     Ti40    10.0   1_655     S
Ti37     Ti41    10.0   1_656     S
Ti38     Ti37    10.0   1_564     S
Ti38     Ti39    10.0   1_554     S
Ti38     Ti42    10.0   1_655     S
Ti38     Ti41    10.0   1_665     S
Ti38     Er46    10.0   .     S
Ti39     Ti37    10.0   1_565     S
Ti39     Ti38    10.0   1_556     S
Ti39     Ti42    10.0   1_656     S
Ti39     Ti40    10.0   1_665     S
Ti40     Ti39    10.0   1_445     S
Ti40     Ti41    10.0   1_556     S
Ti40     Ti37    10.0   1_455     S
Ti40     Ti42    10.0   1_546     S
Ti41     Ti40    10.0   1_554     S
Ti41     Ti37    10.0   1_454     S
Ti41     Ti38    10.0   1_445     S
Ti41     Ti42    10.0   1_545     S
Ti41     Er43    10.0   .     S
Ti42     Ti38    10.0   1_455     S
Ti42     Ti39    10.0   1_454     S
Ti42     Ti40    10.0   1_564     S
Ti42     Ti41    10.0   1_565     S
Ti42     Er49    10.0   .     S
Er43     Er44    10.0   .     S
Er43     V45    10.0   1_455     S
Er44     Ti59    10.0   .     S
Er44     V45    10.0   1_455     S
V45     Er44    10.0   1_655     S
V45     Er43    10.0   1_655     S
V45     Ce54    10.0   .     S
Er46     Er47    10.0   .     S
Er46     V48    10.0   .     S
Er47     Ti56    10.0   .     S
Er47     V48    10.0   .     S
V48     Ce53    10.0   .     S
Er49     Er50    10.0   .     S
Er49     V51    10.0   1_565     S
Er50     Ti55    10.0   .     S
Er50     V51    10.0   1_565     S
V51     Er50    10.0   1_545     S
V51     Er49    10.0   1_545     S
V51     Ce52    10.0   .     S
Ce52     Ce53    10.0   .     S
Ce52     Ce54    10.0   .     S
Ce53     Ce54    10.0   .     S
Ti55     Ti57    10.0   .     S
Ti55     Ti56    10.0   .     S
Ti55     Ti58    10.0   .     S
Ti55     Ti59    10.0   .     S
Ti56     Ti60    10.0   .     S
Ti56     Ti59    10.0   .     S
Ti56     Ti57    10.0   .     S
Ti57     Ti60    10.0   .     S
Ti57     Ti58    10.0   .     S
Ti57     Er68    10.0   .     S
Ti58     Ti59    10.0   .     S
Ti58     Ti60    10.0   .     S
Ti58     Er65    10.0   .     S
Ti59     Ti60    10.0   .     S
Ti60     Er62    10.0   .     S
Er61     Er62    10.0   .     S
Er61     V63    10.0   .     S
Er62     V63    10.0   .     S
V63     Ce72    10.0   .     S
Er64     Er65    10.0   1_655     S
Er64     V66    10.0   1_655     S
Er65     Er64    10.0   1_455     S
Er65     V66    10.0   .     S
V66     Er64    10.0   1_455     S
V66     Ce70    10.0   .     S
Er67     Er68    10.0   1_545     S
Er67     V69    10.0   .     S
Er68     Er67    10.0   1_565     S
Er68     V69    10.0   1_565     S
V69     Er68    10.0   1_545     S
V69     Ce71    10.0   .     S
Ce70     Ce72    10.0   1_565     S
Ce70     Ce71    10.0   1_465     S
Ce71     Ce72    10.0   1_655     S
Ce71     Ce70    10.0   1_645     S
Ce72     Ce70    10.0   1_545     S
Ce72     Ce71    10.0   1_455     S
Ti73     Ti77    10.0   .     S
Ti73     Ti78    10.0   .     S
Ti73     Ti75    10.0   .     S
Ti73     Ti76    10.0   .     S
Ti74     Ti76    10.0   .     S
Ti74     Ti75    10.0   .     S
Ti74     Ti77    10.0   .     S
Ti74     Ti78    10.0   .     S
Ti74     Er100    10.0   .     S
Ti75     Ti77    10.0   .     S
Ti75     Ti76    10.0   .     S
Ti75     Er104    10.0   .     S
Ti76     Ti78    10.0   .     S
Ti77     Ti78    10.0   .     S
Ti77     Er97    10.0   .     S
Er79     Er80    10.0   .     S
Er79     Ti93    10.0   .     S
Er79     V81    10.0   1_455     S
Er80     V81    10.0   1_455     S
V81     Er80    10.0   1_655     S
V81     Er79    10.0   1_655     S
V81     Ce90    10.0   .     S
Er82     Er83    10.0   .     S
Er82     Ti92    10.0   .     S
Er82     V84    10.0   .     S
Er83     V84    10.0   .     S
V84     Ce89    10.0   .     S
Er85     Er86    10.0   .     S
Er85     V87    10.0   1_565     S
Er86     Ti91    10.0   .     S
Er86     V87    10.0   1_565     S
V87     Er85    10.0   1_545     S
V87     Er86    10.0   1_545     S
V87     Ce88    10.0   .     S
Ce88     Ce89    10.0   .     S
Ce88     Ce90    10.0   .     S
Ce89     Ce90    10.0   .     S
Ti91     Ti94    10.0   .     S
Ti91     Ti93    10.0   .     S
Ti91     Ti92    10.0   .     S
Ti91     Ti95    10.0   .     S
Ti92     Ti95    10.0   .     S
Ti92     Ti93    10.0   .     S
Ti92     Ti96    10.0   .     S
Ti93     Ti96    10.0   .     S
Ti93     Ti94    10.0   .     S
Ti94     Ti96    10.0   .     S
Ti94     Ti95    10.0   .     S
Ti94     Er103    10.0   .     S
Ti95     Ti96    10.0   .     S
Ti95     Er98    10.0   .     S
Ti96     Er101    10.0   .     S
Er97     Er98    10.0   .     S
Er97     V99    10.0   .     S
Er98     V99    10.0   .     S
V99     Ce106    10.0   .     S
Er100     Er101    10.0   1_655     S
Er100     V102    10.0   1_655     S
Er101     Er100    10.0   1_455     S
Er101     V102    10.0   .     S
V102     Er100    10.0   1_455     S
V102     Ce108    10.0   .     S
Er103     Er104    10.0   1_565     S
Er103     V105    10.0   1_565     S
Er104     Er103    10.0   1_545     S
Er104     V105    10.0   .     S
V105     Er103    10.0   1_545     S
V105     Ce107    10.0   .     S
Ce106     Ce108    10.0   1_665     S
Ce106     Ce107    10.0   1_665     S
Ce107     Ce106    10.0   1_445     S
Ce107     Ce108    10.0   .     S
Ce108     Ce106    10.0   1_445     S
