data_zyg
_audit_creation_date              2020-02-02
_audit_creation_method            'Pymatgen'
_symmetry_space_group_name_H-M    'P1'
_symmetry_Int_Tables_number       1
loop_
_symmetry_equiv_pos_as_xyz
  x,y,z
_cell_length_a                    42.8643
_cell_length_b                    42.8643
_cell_length_c                    27.0189
_cell_angle_alpha                 90.0
_cell_angle_beta                 90.0
_cell_angle_gamma                 120.0
loop_
_atom_site_label
_atom_site_type_symbol
_atom_site_fract_x
_atom_site_fract_y
_atom_site_fract_z
Er1     Er     0.1986   0.3973   0.5
Er2     Er     0.3973   0.1986   0.0
Er3     Er     0.1986   0.3973   0.0
Er4     Er     0.8014   0.1986   0.5
Er5     Er     0.8014   0.1986   0.0
V6     V     0.6667   0.3333   0.0
Er7     Er     0.8014   0.6027   0.0
Ti8     Ti     0.0   0.2978   0.25
Er9     Er     0.1986   0.8014   0.5
V10     V     0.3333   0.6667   0.5
Er11     Er     0.6027   0.8014   0.5
Er12     Er     0.3973   0.1986   0.5
V13     V     0.6667   0.3333   0.5
Er14     Er     0.8014   0.6027   0.5
Er15     Er     0.1986   0.8014   0.0
V16     V     0.3333   0.6667   0.0
Er17     Er     0.6027   0.8014   0.0
Ti18     Ti     0.7022   0.0   0.75
Ti19     Ti     0.7022   0.7022   0.25
Ti20     Ti     0.2978   0.0   0.25
Ti21     Ti     0.0   0.7022   0.75
Ti22     Ti     0.2978   0.2978   0.75
loop_
_geom_bond_atom_site_label_1
_geom_bond_atom_site_label_2
_geom_bond_distance
_geom_bond_site_symmetry_2
_ccdc_geom_bond_type
Er1     V10    10.0   .     S
Er1     Ti22    10.0   .     S
Er1     Ti8    10.0   .     S
Er2     V6    10.0   .     S
Er2     Ti20    10.0   .     S
Er2     Ti22    10.0   1_554     S
Er3     V16    10.0   .     S
Er3     Ti22    10.0   1_554     S
Er3     Ti8    10.0   .     S
Er4     V13    10.0   .     S
Er4     Ti18    10.0   .     S
Er4     Ti8    10.0   1_655     S
Er5     V6    10.0   .     S
Er5     Ti18    10.0   1_554     S
Er5     Ti8    10.0   1_655     S
V6     Er7    10.0   .     S
Er7     Ti19    10.0   .     S
Er7     Ti21    10.0   1_654     S
Ti8     Er4    10.0   1_455     S
Ti8     Er5    10.0   1_455     S
Er9     V10    10.0   .     S
Er9     Ti21    10.0   .     S
Er9     Ti20    10.0   1_565     S
V10     Er11    10.0   .     S
Er11     Ti19    10.0   .     S
Er11     Ti18    10.0   1_565     S
Er12     V13    10.0   .     S
Er12     Ti20    10.0   .     S
Er12     Ti22    10.0   .     S
V13     Er14    10.0   .     S
Er14     Ti19    10.0   .     S
Er14     Ti21    10.0   1_655     S
Er15     V16    10.0   .     S
Er15     Ti21    10.0   1_554     S
Er15     Ti20    10.0   1_565     S
V16     Er17    10.0   .     S
Er17     Ti19    10.0   .     S
Er17     Ti18    10.0   1_564     S
Ti18     Er5    10.0   1_556     S
Ti18     Er11    10.0   1_545     S
Ti18     Er17    10.0   1_546     S
Ti20     Er9    10.0   1_545     S
Ti20     Er15    10.0   1_545     S
Ti21     Er7    10.0   1_456     S
Ti21     Er14    10.0   1_455     S
Ti21     Er15    10.0   1_556     S
Ti22     Er2    10.0   1_556     S
Ti22     Er3    10.0   1_556     S
