data_zyga
_audit_creation_date              2020-02-02
_audit_creation_method            'Pymatgen'
_symmetry_space_group_name_H-M    'P1'
_symmetry_Int_Tables_number       1
loop_
_symmetry_equiv_pos_as_xyz
  x,y,z
_cell_length_a                    95.6599
_cell_length_b                    95.6599
_cell_length_c                    61.3152
_cell_angle_alpha                 90.0
_cell_angle_beta                 90.0
_cell_angle_gamma                 120.0
loop_
_atom_site_label
_atom_site_type_symbol
_atom_site_fract_x
_atom_site_fract_y
_atom_site_fract_z
V1     V     0.7305   0.6701   0.8316
V2     V     0.7305   0.6701   0.6684
Ti3     Ti     0.7619   0.5237   0.5
Ce4     Ce     0.8504   0.6283   0.4413
Ce5     Ce     0.7779   0.6283   0.5587
Ti6     Ti     0.7619   0.5237   0.0
Ce7     Ce     0.8504   0.6283   0.0587
Ce8     Ce     0.7779   0.6283   0.9413
V9     V     0.9396   0.6701   0.1684
V10     V     0.9396   0.6701   0.3316
V11     V     0.6701   0.7305   0.6684
V12     V     0.6701   0.7305   0.8316
Ti13     Ti     0.5237   0.7619   0.5
Ce14     Ce     0.6283   0.8504   0.4413
Ce15     Ce     0.6283   0.7779   0.5587
Ti16     Ti     0.5237   0.7619   0.0
Ce17     Ce     0.6283   0.7779   0.9413
Ce18     Ce     0.6283   0.8504   0.0587
V19     V     0.6701   0.9396   0.3316
V20     V     0.6701   0.9396   0.1684
Er21     Er     0.2985   0.7015   0.5
Er22     Er     0.2985   0.597   0.5
Er23     Er     0.403   0.7015   0.5
Er24     Er     0.2985   0.7015   0.0
Er25     Er     0.2985   0.597   0.0
Er26     Er     0.403   0.7015   0.0
V27     V     0.2695   0.9396   0.6684
V28     V     0.2695   0.9396   0.8316
Ti29     Ti     0.2381   0.7619   0.5
Ce30     Ce     0.1496   0.7779   0.4413
Ce31     Ce     0.2221   0.8504   0.5587
Ti32     Ti     0.2381   0.7619   0.0
Ce33     Ce     0.1496   0.7779   0.0587
Ce34     Ce     0.2221   0.8504   0.9413
V35     V     0.0604   0.7305   0.3316
V36     V     0.0604   0.7305   0.1684
V37     V     0.3299   0.2695   0.3316
V38     V     0.3299   0.2695   0.1684
Ti39     Ti     0.4763   0.2381   0.5
Ce40     Ce     0.3717   0.1496   0.5587
Ce41     Ce     0.3717   0.2221   0.4413
Ti42     Ti     0.4763   0.2381   0.0
Ce43     Ce     0.3717   0.1496   0.9413
Ce44     Ce     0.3717   0.2221   0.0587
V45     V     0.3299   0.0604   0.6684
V46     V     0.3299   0.0604   0.8316
Er47     Er     0.7015   0.403   0.0
Er48     Er     0.597   0.2985   0.0
Er49     Er     0.7015   0.2985   0.0
Er50     Er     0.7015   0.403   0.5
Er51     Er     0.597   0.2985   0.5
Er52     Er     0.7015   0.2985   0.5
V53     V     0.7305   0.0604   0.3316
V54     V     0.7305   0.0604   0.1684
Ti55     Ti     0.7619   0.2381   0.0
Ce56     Ce     0.7779   0.1496   0.0587
Ce57     Ce     0.8504   0.2221   0.9413
Ti58     Ti     0.7619   0.2381   0.5
Ce59     Ce     0.7779   0.1496   0.4413
Ce60     Ce     0.8504   0.2221   0.5587
V61     V     0.9396   0.2695   0.8316
V62     V     0.9396   0.2695   0.6684
V63     V     0.0604   0.3299   0.6684
V64     V     0.0604   0.3299   0.8316
Ti65     Ti     0.2381   0.4763   0.5
Ce66     Ce     0.1496   0.3717   0.5587
Ce67     Ce     0.2221   0.3717   0.4413
Ti68     Ti     0.2381   0.4763   0.0
Ce69     Ce     0.1496   0.3717   0.9413
Ce70     Ce     0.2221   0.3717   0.0587
V71     V     0.2695   0.3299   0.3316
V72     V     0.2695   0.3299   0.1684
loop_
_geom_bond_atom_site_label_1
_geom_bond_atom_site_label_2
_geom_bond_distance
_geom_bond_site_symmetry_2
_ccdc_geom_bond_type
V1     Ce8    10.0   .     S
V1     V2    10.001   .     S
V1     V12    10.001   .     S
V2     Ce5    10.0   .     S
V2     V11    10.001   .     S
Ti3     Er50    10.0   .     S
Ti3     Ce4    10.0   .     S
Ti3     Ce5    10.0   .     S
Ce4     Ce5    9.999   .     S
Ce4     V10    10.0   .     S
Ti6     Er47    10.0   .     S
Ti6     Ce7    10.0   .     S
Ti6     Ce8    10.0   1_554     S
Ce7     Ce8    9.999   1_554     S
Ce7     V9    10.0   .     S
Ce8     Ce7    9.999   1_556     S
Ce8     Ti6    10.0   1_556     S
V9     V10    10.001   .     S
V9     V36    10.001   1_655     S
V10     V35    10.001   1_655     S
V11     Ce15    10.0   .     S
V11     V12    10.001   .     S
V12     Ce17    10.0   .     S
Ti13     Er23    10.0   .     S
Ti13     Ce14    10.0   .     S
Ti13     Ce15    10.0   .     S
Ce14     Ce15    9.999   .     S
Ce14     V19    10.0   .     S
Ti16     Er26    10.0   .     S
Ti16     Ce17    10.0   1_554     S
Ti16     Ce18    10.0   .     S
Ce17     Ce18    9.999   1_556     S
Ce17     Ti16    10.0   1_556     S
Ce18     Ce17    9.999   1_554     S
Ce18     V20    10.0   .     S
V19     V20    10.001   .     S
V19     V53    10.001   1_565     S
V20     V54    10.001   1_565     S
Er21     Er23    9.999   .     S
Er21     Er22    9.999   .     S
Er21     Ti29    10.0   .     S
Er22     Er23    9.999   .     S
Er22     Ti65    10.0   .     S
Er24     Er26    9.999   .     S
Er24     Er25    9.999   .     S
Er24     Ti32    10.0   .     S
Er25     Er26    9.999   .     S
Er25     Ti68    10.0   .     S
V27     Ce31    10.0   .     S
V27     V28    10.001   .     S
V27     V45    10.001   1_565     S
V28     Ce34    10.0   .     S
V28     V46    10.001   1_565     S
Ti29     Ce30    10.0   .     S
Ti29     Ce31    10.0   .     S
Ce30     Ce31    9.999   .     S
Ce30     V35    10.0   .     S
Ti32     Ce33    10.0   .     S
Ti32     Ce34    10.0   1_554     S
Ce33     Ce34    9.999   1_554     S
Ce33     V36    10.0   .     S
Ce34     Ce33    9.999   1_556     S
Ce34     Ti32    10.0   1_556     S
V35     V10    10.001   1_455     S
V35     V36    10.001   .     S
V36     V9    10.001   1_455     S
V37     Ce41    10.0   .     S
V37     V38    10.001   .     S
V37     V71    10.001   .     S
V38     Ce44    10.0   .     S
V38     V72    10.001   .     S
Ti39     Er51    10.0   .     S
Ti39     Ce41    10.0   .     S
Ti39     Ce40    10.0   .     S
Ce40     Ce41    9.999   .     S
Ce40     V45    10.0   .     S
Ti42     Er48    10.0   .     S
Ti42     Ce44    10.0   .     S
Ti42     Ce43    10.0   1_554     S
Ce43     Ce44    9.999   1_556     S
Ce43     Ti42    10.0   1_556     S
Ce43     V46    10.0   .     S
Ce44     Ce43    9.999   1_554     S
V45     V27    10.001   1_545     S
V45     V46    10.001   .     S
V46     V28    10.001   1_545     S
Er47     Er48    9.999   .     S
Er47     Er49    9.999   .     S
Er48     Er49    9.999   .     S
Er49     Ti55    10.0   .     S
Er50     Er52    9.999   .     S
Er50     Er51    9.999   .     S
Er51     Er52    9.999   .     S
Er52     Ti58    10.0   .     S
V53     V19    10.001   1_545     S
V53     Ce59    10.0   .     S
V53     V54    10.001   .     S
V54     V20    10.001   1_545     S
V54     Ce56    10.0   .     S
Ti55     Ce57    10.0   1_554     S
Ti55     Ce56    10.0   .     S
Ce56     Ce57    9.999   1_554     S
Ce57     Ce56    9.999   1_556     S
Ce57     Ti55    10.0   1_556     S
Ce57     V61    10.0   .     S
Ti58     Ce60    10.0   .     S
Ti58     Ce59    10.0   .     S
Ce59     Ce60    9.999   .     S
Ce60     V62    10.0   .     S
V61     V62    10.001   .     S
V61     V64    10.001   1_655     S
V62     V63    10.001   1_655     S
V63     V62    10.001   1_455     S
V63     Ce66    10.0   .     S
V63     V64    10.001   .     S
V64     V61    10.001   1_455     S
V64     Ce69    10.0   .     S
Ti65     Ce67    10.0   .     S
Ti65     Ce66    10.0   .     S
Ce66     Ce67    9.999   .     S
Ce67     V71    10.0   .     S
Ti68     Ce69    10.0   1_554     S
Ti68     Ce70    10.0   .     S
Ce69     Ce70    9.999   1_556     S
Ce69     Ti68    10.0   1_556     S
Ce70     Ce69    9.999   1_554     S
Ce70     V72    10.0   .     S
V71     V72    10.001   .     S
