data_zyl
_audit_creation_date              2020-02-02
_audit_creation_method            'Pymatgen'
_symmetry_space_group_name_H-M    'P1'
_symmetry_Int_Tables_number       1
loop_
_symmetry_equiv_pos_as_xyz
  x,y,z
_cell_length_a                    18.1697
_cell_length_b                    41.1578
_cell_length_c                    32.4285
_cell_angle_alpha                 90.0
_cell_angle_beta                 90.0
_cell_angle_gamma                 90.0
loop_
_atom_site_label
_atom_site_type_symbol
_atom_site_fract_x
_atom_site_fract_y
_atom_site_fract_z
V1     V     0.0   0.9057   0.5
Ti2     Ti     0.0   0.6878   0.6365
Er3     Er     0.0   0.904   0.1916
Ti4     Ti     0.5   0.8122   0.1365
V5     V     0.5   0.5943   0.0
Er6     Er     0.5   0.596   0.6916
Ti7     Ti     0.5   0.1878   0.6365
V8     V     0.5   0.4057   0.5
Er9     Er     0.5   0.404   0.1916
Ti10     Ti     0.0   0.3122   0.1365
V11     V     0.0   0.0943   0.0
Er12     Er     0.0   0.096   0.6916
loop_
_geom_bond_atom_site_label_1
_geom_bond_atom_site_label_2
_geom_bond_distance
_geom_bond_site_symmetry_2
_ccdc_geom_bond_type
V1     Ti2    10.0   .     S
V1     Er3    10.0   .     S
V1     Er12    10.0   1_565     S
Ti2     Er6    10.0   1_455     S
Ti2     Er6    10.0   .     S
Er3     Ti4    10.0   1_455     S
Er3     Ti4    10.0   .     S
Er3     V11    10.0   1_565     S
Ti4     V5    10.0   .     S
Ti4     Er3    10.0   1_655     S
V5     Er6    10.0   1_554     S
V5     Er9    10.0   .     S
Er6     V5    10.0   1_556     S
Er6     Ti2    10.0   1_655     S
Er6     V8    10.0   .     S
Ti7     V8    10.0   .     S
Ti7     Er12    10.0   .     S
Ti7     Er12    10.0   1_655     S
V8     Er9    10.0   .     S
Er9     Ti10    10.0   .     S
Er9     Ti10    10.0   1_655     S
Ti10     V11    10.0   .     S
Ti10     Er9    10.0   1_455     S
V11     Er12    10.0   1_554     S
V11     Er3    10.0   1_545     S
Er12     V11    10.0   1_556     S
Er12     Ti7    10.0   1_455     S
Er12     V1    10.0   1_545     S
