data_fog
_audit_creation_date              2020-02-04
_audit_creation_method            'Pymatgen'
_symmetry_space_group_name_H-M    'P1'
_symmetry_Int_Tables_number       1
loop_
_symmetry_equiv_pos_as_xyz
  x,y,z
_cell_length_a                    39.9521
_cell_length_b                    39.9521
_cell_length_c                    38.8225
_cell_angle_alpha                 90.0
_cell_angle_beta                 90.0
_cell_angle_gamma                 120.0
loop_
_atom_site_label
_atom_site_type_symbol
_atom_site_fract_x
_atom_site_fract_y
_atom_site_fract_z
V1     V     0.0415   0.7082   0.3333
V2     V     0.2918   0.9585   0.3333
V3     V     0.9585   0.2918   0.6667
V4     V     0.7082   0.0415   0.6667
Er5     Er     0.5   0.0   0.5
Er6     Er     0.0   0.5   0.5
V7     V     0.6252   0.0   0.0
V8     V     0.3748   0.0   0.0
V9     V     0.0   0.3748   0.0
V10     V     0.0   0.6252   0.0
V11     V     0.0415   0.3333   0.3333
V12     V     0.2918   0.3333   0.3333
Er13     Er     0.3333   0.1667   0.1667
V14     V     0.6667   0.7082   0.3333
V15     V     0.6667   0.9585   0.3333
Er16     Er     0.8333   0.6667   0.1667
Er17     Er     0.8333   0.1667   0.1667
V18     V     0.3748   0.3748   0.0
V19     V     0.6252   0.6252   0.0
V20     V     0.9585   0.6667   0.6667
V21     V     0.7082   0.6667   0.6667
Er22     Er     0.6667   0.8333   0.8333
V23     V     0.3333   0.0415   0.6667
V24     V     0.3333   0.2918   0.6667
Er25     Er     0.1667   0.3333   0.8333
Er26     Er     0.1667   0.8333   0.8333
Er27     Er     0.5   0.5   0.5
loop_
_geom_bond_atom_site_label_1
_geom_bond_atom_site_label_2
_geom_bond_distance
_geom_bond_site_symmetry_2
_ccdc_geom_bond_type
V1     Er16    10.0   1_455     S
V1     Er6    10.0   .     S
V1     V2    10.0   .     S
V2     Er13    10.0   1_565     S
V2     Er5    10.0   1_565     S
V3     Er25    10.0   1_655     S
V3     Er6    10.0   1_655     S
V3     V4    10.0   .     S
V4     Er22    10.0   1_545     S
V4     Er5    10.0   .     S
Er5     V2    10.0   1_545     S
Er5     V15    10.0   1_545     S
Er5     V23    10.0   .     S
Er6     V3    10.0   1_455     S
Er6     V11    10.0   .     S
Er6     V20    10.0   1_455     S
V7     Er17    10.0   .     S
V7     Er22    10.0   1_544     S
V7     V8    10.0   .     S
V8     Er13    10.0   .     S
V8     Er26    10.0   1_544     S
V9     Er17    10.0   1_455     S
V9     Er25    10.0   1_554     S
V9     V10    10.0   .     S
V10     Er16    10.0   1_455     S
V10     Er26    10.0   1_554     S
V11     Er17    10.0   1_455     S
V11     V12    10.0   .     S
V12     Er13    10.0   .     S
V12     Er27    10.0   .     S
Er13     V2    10.0   1_545     S
Er13     V18    10.0   .     S
V14     Er16    10.0   .     S
V14     Er27    10.0   .     S
V14     V15    10.0   .     S
V15     Er17    10.0   1_565     S
V15     Er5    10.0   1_565     S
Er16     V1    10.0   1_655     S
Er16     V10    10.0   1_655     S
Er16     V19    10.0   .     S
Er17     V9    10.0   1_655     S
Er17     V11    10.0   1_655     S
Er17     V15    10.0   1_545     S
V18     Er25    10.0   1_554     S
V18     V19    10.0   .     S
V19     Er22    10.0   1_554     S
V20     Er26    10.0   1_655     S
V20     Er6    10.0   1_655     S
V20     V21    10.0   .     S
V21     Er22    10.0   .     S
V21     Er27    10.0   .     S
Er22     V4    10.0   1_565     S
Er22     V7    10.0   1_566     S
Er22     V19    10.0   1_556     S
V23     Er26    10.0   1_545     S
V23     V24    10.0   .     S
V24     Er25    10.0   .     S
V24     Er27    10.0   .     S
Er25     V3    10.0   1_455     S
Er25     V9    10.0   1_556     S
Er25     V18    10.0   1_556     S
Er26     V8    10.0   1_566     S
Er26     V10    10.0   1_556     S
Er26     V20    10.0   1_455     S
Er26     V23    10.0   1_565     S
