data_hwx
_audit_creation_date              2020-02-02
_audit_creation_method            'Pymatgen'
_symmetry_space_group_name_H-M    'P1'
_symmetry_Int_Tables_number       1
loop_
_symmetry_equiv_pos_as_xyz
  x,y,z
_cell_length_a                    33.3374
_cell_length_b                    33.3374
_cell_length_c                    14.9035
_cell_angle_alpha                 90.0
_cell_angle_beta                 90.0
_cell_angle_gamma                 90.0
loop_
_atom_site_label
_atom_site_type_symbol
_atom_site_fract_x
_atom_site_fract_y
_atom_site_fract_z
Er1     Er     0.5498   0.25   0.0
V2     V     0.7498   0.2502   0.5
Er3     Er     0.75   0.4502   0.0
Er4     Er     0.75   0.9502   0.5
V5     V     0.7502   0.7502   0.0
Er6     Er     0.9502   0.75   0.5
Er7     Er     0.25   0.0497   0.5
V8     V     0.2498   0.2498   0.0
Er9     Er     0.0497   0.25   0.5
Er10     Er     0.25   0.5498   0.0
V11     V     0.2502   0.7498   0.5
Er12     Er     0.4502   0.75   0.0
loop_
_geom_bond_atom_site_label_1
_geom_bond_atom_site_label_2
_geom_bond_distance
_geom_bond_site_symmetry_2
_ccdc_geom_bond_type
Er1     V8    10.0   .     S
Er1     V2    10.0   1_554     S
Er1     V2    10.0   .     S
V2     Er3    10.0   1_556     S
V2     Er1    10.0   1_556     S
V2     Er3    10.0   .     S
V2     Er4    10.0   1_545     S
V2     Er9    10.0   1_655     S
Er3     V2    10.0   1_554     S
Er3     V5    10.0   .     S
Er4     V2    10.0   1_565     S
Er4     V5    10.0   1_556     S
Er4     V5    10.0   .     S
V5     Er4    10.0   1_554     S
V5     Er6    10.0   1_554     S
V5     Er6    10.0   .     S
V5     Er12    10.0   .     S
Er6     V5    10.0   1_556     S
Er6     V11    10.0   1_655     S
Er7     V11    10.0   1_545     S
Er7     V8    10.0   1_556     S
Er7     V8    10.0   .     S
V8     Er7    10.0   1_554     S
V8     Er9    10.0   1_554     S
V8     Er9    10.0   .     S
V8     Er10    10.0   .     S
Er9     V8    10.0   1_556     S
Er9     V2    10.0   1_455     S
Er10     V11    10.0   .     S
Er10     V11    10.0   1_554     S
V11     Er6    10.0   1_455     S
V11     Er7    10.0   1_565     S
V11     Er12    10.0   .     S
V11     Er10    10.0   1_556     S
V11     Er12    10.0   1_556     S
Er12     V11    10.0   1_554     S
