data_rhr
_audit_creation_date              2020-02-02
_audit_creation_method            'Pymatgen'
_symmetry_space_group_name_H-M    'P1'
_symmetry_Int_Tables_number       1
loop_
_symmetry_equiv_pos_as_xyz
  x,y,z
_cell_length_a                    34.641
_cell_length_b                    34.641
_cell_length_c                    34.641
_cell_angle_alpha                 90.0
_cell_angle_beta                 90.0
_cell_angle_gamma                 90.0
loop_
_atom_site_label
_atom_site_type_symbol
_atom_site_fract_x
_atom_site_fract_y
_atom_site_fract_z
V1     V     0.8333   0.5   0.8333
V2     V     0.6667   0.6667   0.0
V3     V     0.5   0.8333   0.8333
V4     V     0.6667   0.0   0.6667
V5     V     0.0   0.6667   0.6667
V6     V     0.8333   0.8333   0.5
V7     V     0.5   0.1667   0.8333
V8     V     0.6667   0.3333   0.0
V9     V     0.8333   0.5   0.1667
V10     V     0.0   0.6667   0.3333
V11     V     0.1667   0.8333   0.5
V12     V     0.3333   0.0   0.6667
V13     V     0.6667   0.0   0.3333
V14     V     0.5   0.8333   0.1667
V15     V     0.1667   0.5   0.8333
V16     V     0.3333   0.6667   0.0
V17     V     0.1667   0.5   0.1667
V18     V     0.3333   0.3333   0.0
V19     V     0.5   0.1667   0.1667
V20     V     0.0   0.3333   0.6667
V21     V     0.8333   0.1667   0.5
V22     V     0.1667   0.1667   0.5
V23     V     0.3333   0.0   0.3333
V24     V     0.0   0.3333   0.3333
loop_
_geom_bond_atom_site_label_1
_geom_bond_atom_site_label_2
_geom_bond_distance
_geom_bond_site_symmetry_2
_ccdc_geom_bond_type
V1     V20    10.0   1_655     S
V1     V8    10.0   1_556     S
V1     V2    10.0   1_556     S
V1     V5    10.0   1_655     S
V2     V14    10.0   .     S
V2     V9    10.0   .     S
V2     V3    10.0   1_554     S
V2     V1    10.0   1_554     S
V3     V16    10.0   1_556     S
V3     V12    10.0   1_565     S
V3     V4    10.0   1_565     S
V3     V2    10.0   1_556     S
V4     V21    10.0   .     S
V4     V7    10.0   .     S
V4     V6    10.0   1_545     S
V4     V3    10.0   1_545     S
V5     V15    10.0   .     S
V5     V11    10.0   .     S
V5     V6    10.0   1_455     S
V5     V1    10.0   1_455     S
V6     V13    10.0   1_565     S
V6     V10    10.0   1_655     S
V6     V5    10.0   1_655     S
V6     V4    10.0   1_565     S
V7     V18    10.0   1_556     S
V7     V8    10.0   1_556     S
V7     V12    10.0   .     S
V8     V1    10.0   1_554     S
V8     V19    10.0   .     S
V8     V7    10.0   1_554     S
V8     V9    10.0   .     S
V9     V24    10.0   1_655     S
V9     V10    10.0   1_655     S
V10     V6    10.0   1_455     S
V10     V17    10.0   .     S
V10     V9    10.0   1_455     S
V10     V11    10.0   .     S
V11     V23    10.0   1_565     S
V11     V12    10.0   1_565     S
V12     V3    10.0   1_545     S
V12     V22    10.0   .     S
V12     V11    10.0   1_545     S
V13     V6    10.0   1_545     S
V13     V19    10.0   .     S
V13     V14    10.0   1_545     S
V13     V21    10.0   .     S
V14     V23    10.0   1_565     S
V14     V13    10.0   1_565     S
V14     V16    10.0   .     S
V15     V18    10.0   1_556     S
V15     V16    10.0   1_556     S
V15     V20    10.0   .     S
V16     V3    10.0   1_554     S
V16     V17    10.0   .     S
V16     V15    10.0   1_554     S
V17     V24    10.0   .     S
V17     V18    10.0   .     S
V18     V7    10.0   1_554     S
V18     V15    10.0   1_554     S
V18     V19    10.0   .     S
V19     V23    10.0   .     S
V20     V1    10.0   1_455     S
V20     V22    10.0   .     S
V20     V21    10.0   1_455     S
V21     V24    10.0   1_655     S
V21     V20    10.0   1_655     S
V22     V23    10.0   .     S
V22     V24    10.0   .     S
V23     V11    10.0   1_545     S
V23     V14    10.0   1_545     S
V24     V9    10.0   1_455     S
V24     V21    10.0   1_455     S
