data_cpe
_audit_creation_date              2020-02-16
_audit_creation_method            'Pymatgen'
_symmetry_space_group_name_H-M    'P1'
_symmetry_Int_Tables_number       1
loop_
_symmetry_equiv_pos_as_xyz
  x,y,z
_cell_length_a                    35.5194
_cell_length_b                    35.5194
_cell_length_c                    20.0
_cell_angle_alpha                 90.0
_cell_angle_beta                 90.0
_cell_angle_gamma                 120.0
loop_
_atom_site_label
_atom_site_type_symbol
_atom_site_fract_x
_atom_site_fract_y
_atom_site_fract_z
V1     V     0.7292   0.5179   0.0
V2     V     0.4821   0.2114   0.0
V3     V     0.7886   0.2708   0.0
Er4     Er     0.0   0.1625   0.0
Er5     Er     0.1625   0.0   0.0
Er6     Er     0.8375   0.8375   0.0
V7     V     0.5179   0.7292   0.0
V8     V     0.2708   0.7886   0.0
V9     V     0.2114   0.4821   0.0
loop_
_geom_bond_atom_site_label_1
_geom_bond_atom_site_label_2
_geom_bond_distance
_geom_bond_site_symmetry_2
_ccdc_geom_bond_type
V1     Er6    10.0   .     S
V1     V2    10.0   .     S
V1     V3    10.0   .     S
V2     Er5    10.0   .     S
V2     V3    10.0   .     S
V3     Er4    10.0   1_655     S
Er4     V3    10.0   1_455     S
Er4     Er5    10.0   .     S
Er4     Er6    10.0   1_445     S
Er4     V9    10.0   .     S
Er5     Er6    10.0   1_445     S
Er5     V8    10.0   1_545     S
Er6     Er4    10.0   1_665     S
Er6     Er5    10.0   1_665     S
Er6     V7    10.0   .     S
V7     V9    10.0   .     S
V7     V8    10.0   .     S
V8     Er5    10.0   1_565     S
V8     V9    10.0   .     S
