data_bhd
_audit_creation_date              2020-02-16
_audit_creation_method            'Pymatgen'
_symmetry_space_group_name_H-M    'P1'
_symmetry_Int_Tables_number       1
loop_
_symmetry_equiv_pos_as_xyz
  x,y,z
_cell_length_a                    16.1035
_cell_length_b                    21.8641
_cell_length_c                    20.0
_cell_angle_alpha                 90.0
_cell_angle_beta                 90.0
_cell_angle_gamma                 90.0
loop_
_atom_site_label
_atom_site_type_symbol
_atom_site_fract_x
_atom_site_fract_y
_atom_site_fract_z
Er1     Er     0.75   0.0931   0.0
Er2     Er     0.75   0.9069   0.0
Er3     Er     0.25   0.0931   0.0
Er4     Er     0.25   0.9069   0.0
V5     V     0.75   0.6358   0.0
V6     V     0.75   0.3642   0.0
V7     V     0.25   0.3642   0.0
V8     V     0.25   0.6358   0.0
loop_
_geom_bond_atom_site_label_1
_geom_bond_atom_site_label_2
_geom_bond_distance
_geom_bond_site_symmetry_2
_ccdc_geom_bond_type
Er1     V5    10.0   1_545     S
Er1     V7    9.998   1_655     S
Er1     V7    9.998   .     S
Er2     V6    10.0   1_565     S
Er2     V8    9.998   1_655     S
Er2     V8    9.998   .     S
Er3     V6    9.998   1_455     S
Er3     V8    10.0   1_545     S
Er3     V6    9.998   .     S
Er4     V5    9.998   1_455     S
Er4     V7    10.0   1_565     S
Er4     V5    9.998   .     S
V5     Er1    10.0   1_565     S
V5     Er4    9.998   1_655     S
V5     V7    10.004   1_655     S
V5     V7    10.004   .     S
V6     Er2    10.0   1_545     S
V6     Er3    9.998   1_655     S
V6     V8    10.004   1_655     S
V6     V8    10.004   .     S
V7     Er1    9.998   1_455     S
V7     Er4    10.0   1_545     S
V7     V5    10.004   1_455     S
V8     Er2    9.998   1_455     S
V8     Er3    10.0   1_565     S
V8     V6    10.004   1_455     S
