data_bil
_audit_creation_date              2020-02-16
_audit_creation_method            'Pymatgen'
_symmetry_space_group_name_H-M    'P1'
_symmetry_Int_Tables_number       1
loop_
_symmetry_equiv_pos_as_xyz
  x,y,z
_cell_length_a                    69.6162
_cell_length_b                    49.1704
_cell_length_c                    20.0
_cell_angle_alpha                 90.0
_cell_angle_beta                 90.0
_cell_angle_gamma                 90.0
loop_
_atom_site_label
_atom_site_type_symbol
_atom_site_fract_x
_atom_site_fract_y
_atom_site_fract_z
Er1     Er     0.811   0.1962   0.0
Er2     Er     0.689   0.3038   0.0
Er3     Er     0.689   0.6962   0.0
Er4     Er     0.811   0.8038   0.0
Er5     Er     0.189   0.1962   0.0
Er6     Er     0.311   0.3038   0.0
V7     V     0.4282   0.8138   0.0
V8     V     0.5718   0.8138   0.0
Ti9     Ti     0.3704   0.0   0.0
Ce10     Ce     0.2268   0.0   0.0
V11     V     0.4282   0.1862   0.0
V12     V     0.5718   0.1862   0.0
Ti13     Ti     0.6296   0.0   0.0
Ce14     Ce     0.7732   0.0   0.0
V15     V     0.0718   0.6862   0.0
V16     V     0.9282   0.6862   0.0
Ti17     Ti     0.1296   0.5   0.0
Ce18     Ce     0.2732   0.5   0.0
Ti19     Ti     0.8704   0.5   0.0
Ce20     Ce     0.7268   0.5   0.0
V21     V     0.0718   0.3138   0.0
V22     V     0.9282   0.3138   0.0
Er23     Er     0.311   0.6962   0.0
Er24     Er     0.189   0.8038   0.0
loop_
_geom_bond_atom_site_label_1
_geom_bond_atom_site_label_2
_geom_bond_distance
_geom_bond_site_symmetry_2
_ccdc_geom_bond_type
Er1     V22    10.0   .     S
Er1     Er2    10.0   .     S
Er1     Ce14    10.0   .     S
Er2     V12    10.0   .     S
Er2     Ce20    10.0   .     S
Er3     V8    10.0   .     S
Er3     Er4    10.0   .     S
Er3     Ce20    10.0   .     S
Er4     V16    10.0   .     S
Er4     Ce14    10.0   1_565     S
Er5     V21    10.0   .     S
Er5     Er6    10.0   .     S
Er5     Ce10    10.0   .     S
Er6     V11    10.0   .     S
Er6     Ce18    10.0   .     S
V7     V8    10.0   .     S
V7     Ti9    10.0   1_565     S
V7     Er23    10.0   .     S
V8     Ti13    10.0   1_565     S
Ti9     Ce10    10.0   .     S
Ti9     V7    10.0   1_545     S
Ti9     V11    10.0   .     S
Ce10     Er24    10.0   1_545     S
V11     V12    10.0   .     S
V12     Ti13    10.0   .     S
Ti13     Ce14    10.0   .     S
Ti13     V8    10.0   1_545     S
Ce14     Er4    10.0   1_545     S
V15     V16    10.0   1_455     S
V15     Ti17    10.0   .     S
V15     Er24    10.0   .     S
V16     V15    10.0   1_655     S
V16     Ti19    10.0   .     S
Ti17     Ce18    10.0   .     S
Ti17     V21    10.0   .     S
Ce18     Er23    10.0   .     S
Ti19     Ce20    10.0   .     S
Ti19     V22    10.0   .     S
V21     V22    10.0   1_455     S
V22     V21    10.0   1_655     S
Er23     Er24    10.0   .     S
Er24     Ce10    10.0   1_565     S
