data_cema
_audit_creation_date              2020-02-16
_audit_creation_method            'Pymatgen'
_symmetry_space_group_name_H-M    'P1'
_symmetry_Int_Tables_number       1
loop_
_symmetry_equiv_pos_as_xyz
  x,y,z
_cell_length_a                    99.9904
_cell_length_b                    26.3349
_cell_length_c                    20.0
_cell_angle_alpha                 90.0
_cell_angle_beta                 90.0
_cell_angle_gamma                 90.0
loop_
_atom_site_label
_atom_site_type_symbol
_atom_site_fract_x
_atom_site_fract_y
_atom_site_fract_z
Ti1     Ti     0.45   0.0   0.0
Ti2     Ti     0.55   0.0   0.0
Er3     Er     0.3923   0.6899   0.0
Er4     Er     0.3923   0.3101   0.0
V5     V     0.2974   0.1899   0.0
V6     V     0.2974   0.8101   0.0
Er7     Er     0.1077   0.8101   0.0
Er8     Er     0.1077   0.1899   0.0
V9     V     0.2026   0.3101   0.0
V10     V     0.2026   0.6899   0.0
Ti11     Ti     0.05   0.5   0.0
Ti12     Ti     0.95   0.5   0.0
Er13     Er     0.6077   0.3101   0.0
Er14     Er     0.6077   0.6899   0.0
V15     V     0.7026   0.1899   0.0
V16     V     0.7026   0.8101   0.0
Er17     Er     0.8923   0.8101   0.0
Er18     Er     0.8923   0.1899   0.0
V19     V     0.7974   0.6899   0.0
V20     V     0.7974   0.3101   0.0
loop_
_geom_bond_atom_site_label_1
_geom_bond_atom_site_label_2
_geom_bond_distance
_geom_bond_site_symmetry_2
_ccdc_geom_bond_type
Ti1     Ti2    9.999   .     S
Ti1     Er3    10.0   1_545     S
Ti1     Er4    10.0   .     S
Ti2     Er13    10.0   .     S
Ti2     Er14    10.0   1_545     S
Er3     Ti1    10.0   1_565     S
Er3     Er4    10.0   .     S
Er3     V6    10.0   .     S
Er4     V5    10.0   .     S
V5     V6    10.0   1_545     S
V5     V9    10.0   .     S
V6     V5    10.0   1_565     S
V6     V10    10.0   .     S
Er7     Ti11    10.0   .     S
Er7     Er8    10.0   1_565     S
Er7     V10    10.0   .     S
Er8     Ti11    10.0   .     S
Er8     Er7    10.0   1_545     S
Er8     V9    10.0   .     S
V9     V10    10.0   .     S
Ti11     Ti12    9.999   1_455     S
Ti12     Ti11    9.999   1_655     S
Ti12     Er17    10.0   .     S
Ti12     Er18    10.0   .     S
Er13     Er14    10.0   .     S
Er13     V15    10.0   .     S
Er14     Ti2    10.0   1_565     S
Er14     V16    10.0   .     S
V15     V16    10.0   1_545     S
V15     V20    10.0   .     S
V16     V15    10.0   1_565     S
V16     V19    10.0   .     S
Er17     Er18    10.0   1_565     S
Er17     V19    10.0   .     S
Er18     Er17    10.0   1_545     S
Er18     V20    10.0   .     S
V19     V20    10.0   .     S
