data_cpc
_audit_creation_date              2020-02-16
_audit_creation_method            'Pymatgen'
_symmetry_space_group_name_H-M    'P1'
_symmetry_Int_Tables_number       1
loop_
_symmetry_equiv_pos_as_xyz
  x,y,z
_cell_length_a                    33.4608
_cell_length_b                    33.4608
_cell_length_c                    20.0
_cell_angle_alpha                 90.0
_cell_angle_beta                 90.0
_cell_angle_gamma                 90.0
loop_
_atom_site_label
_atom_site_type_symbol
_atom_site_fract_x
_atom_site_fract_y
_atom_site_fract_z
V1     V     0.317   0.817   0.0
V2     V     0.683   0.183   0.0
Er3     Er     0.6057   0.8943   0.0
Er4     Er     0.3943   0.1057   0.0
V5     V     0.817   0.683   0.0
V6     V     0.183   0.317   0.0
Er7     Er     0.8943   0.3943   0.0
Er8     Er     0.1057   0.6057   0.0
loop_
_geom_bond_atom_site_label_1
_geom_bond_atom_site_label_2
_geom_bond_distance
_geom_bond_site_symmetry_2
_ccdc_geom_bond_type
V1     Er3    10.0   .     S
V1     Er4    10.0   1_565     S
V1     Er8    10.0   .     S
V2     Er4    10.0   .     S
V2     Er3    10.0   1_545     S
V2     Er7    10.0   .     S
Er3     V2    10.0   1_565     S
Er3     Er4    10.0   1_565     S
Er3     V5    10.0   .     S
Er4     V1    10.0   1_545     S
Er4     Er3    10.0   1_545     S
Er4     V6    10.0   .     S
V5     Er7    10.0   .     S
V5     Er8    10.0   1_655     S
V6     Er8    10.0   .     S
V6     Er7    10.0   1_455     S
Er7     V6    10.0   1_655     S
Er7     Er8    10.0   1_655     S
Er8     V5    10.0   1_455     S
Er8     Er7    10.0   1_455     S
