data_cpf
_audit_creation_date              2020-02-16
_audit_creation_method            'Pymatgen'
_symmetry_space_group_name_H-M    'P1'
_symmetry_Int_Tables_number       1
loop_
_symmetry_equiv_pos_as_xyz
  x,y,z
_cell_length_a                    54.6409
_cell_length_b                    20.0001
_cell_length_c                    20.0
_cell_angle_alpha                 90.0
_cell_angle_beta                 90.0
_cell_angle_gamma                 90.0
loop_
_atom_site_label
_atom_site_type_symbol
_atom_site_fract_x
_atom_site_fract_y
_atom_site_fract_z
Er1     Er     0.0915   0.0   0.0
Er2     Er     0.4085   0.5   0.0
V3     V     0.25   0.75   0.0
V4     V     0.25   0.25   0.0
Er5     Er     0.5915   0.5   0.0
Er6     Er     0.9085   0.0   0.0
V7     V     0.75   0.75   0.0
V8     V     0.75   0.25   0.0
loop_
_geom_bond_atom_site_label_1
_geom_bond_atom_site_label_2
_geom_bond_distance
_geom_bond_site_symmetry_2
_ccdc_geom_bond_type
Er1     V4    10.0   .     S
Er1     V3    10.0   1_545     S
Er1     Er6    10.0   1_455     S
Er2     V4    10.0   .     S
Er2     V3    10.0   .     S
Er2     Er5    10.0   .     S
V3     Er1    10.0   1_565     S
V3     V4    10.0   .     S
V3     V4    10.0   1_565     S
V4     V3    10.0   1_545     S
Er5     V7    10.0   .     S
Er5     V8    10.0   .     S
Er6     V7    10.0   1_545     S
Er6     V8    10.0   .     S
Er6     Er1    10.0   1_655     S
V7     Er6    10.0   1_565     S
V7     V8    10.0   .     S
V7     V8    10.0   1_565     S
V8     V7    10.0   1_545     S
