data_cpg
_audit_creation_date              2020-02-16
_audit_creation_method            'Pymatgen'
_symmetry_space_group_name_H-M    'P1'
_symmetry_Int_Tables_number       1
loop_
_symmetry_equiv_pos_as_xyz
  x,y,z
_cell_length_a                    44.6411
_cell_length_b                    44.6411
_cell_length_c                    20.0
_cell_angle_alpha                 90.0
_cell_angle_beta                 90.0
_cell_angle_gamma                 120.0
loop_
_atom_site_label
_atom_site_type_symbol
_atom_site_fract_x
_atom_site_fract_y
_atom_site_fract_z
V1     V     0.612   0.612   0.0
V2     V     0.612   0.0   0.0
Er3     Er     0.8707   0.7413   0.0
V4     V     0.0   0.612   0.0
Er5     Er     0.1293   0.8707   0.0
Er6     Er     0.7413   0.8707   0.0
V7     V     0.388   0.388   0.0
V8     V     0.388   0.0   0.0
Er9     Er     0.8707   0.1293   0.0
Er10     Er     0.2587   0.1293   0.0
Er11     Er     0.1293   0.2587   0.0
V12     V     0.0   0.388   0.0
loop_
_geom_bond_atom_site_label_1
_geom_bond_atom_site_label_2
_geom_bond_distance
_geom_bond_site_symmetry_2
_ccdc_geom_bond_type
V1     Er3    10.0   .     S
V1     Er6    10.0   .     S
V1     V7    10.0   .     S
V2     Er9    10.0   .     S
V2     Er6    10.0   1_545     S
V2     V8    10.0   .     S
Er3     V4    10.0   1_655     S
Er3     Er5    10.0   1_655     S
Er3     Er6    10.0   .     S
V4     Er3    10.0   1_455     S
V4     Er5    10.0   .     S
V4     V12    10.0   .     S
Er5     Er3    10.0   1_455     S
Er5     V8    10.0   1_565     S
Er5     Er10    10.0   1_565     S
Er6     V2    10.0   1_565     S
Er6     Er9    10.0   1_565     S
V7     Er10    10.0   .     S
V7     Er11    10.0   .     S
V8     Er5    10.0   1_545     S
V8     Er10    10.0   .     S
Er9     Er6    10.0   1_545     S
Er9     Er11    10.0   1_655     S
Er9     V12    10.0   1_655     S
Er10     Er5    10.0   1_545     S
Er10     Er11    10.0   .     S
Er11     Er9    10.0   1_455     S
Er11     V12    10.0   .     S
V12     Er9    10.0   1_455     S
