data_cph
_audit_creation_date              2020-02-16
_audit_creation_method            'Pymatgen'
_symmetry_space_group_name_H-M    'P1'
_symmetry_Int_Tables_number       1
loop_
_symmetry_equiv_pos_as_xyz
  x,y,z
_cell_length_a                    37.3208
_cell_length_b                    37.3208
_cell_length_c                    20.0
_cell_angle_alpha                 90.0
_cell_angle_beta                 90.0
_cell_angle_gamma                 90.0
loop_
_atom_site_label
_atom_site_type_symbol
_atom_site_fract_x
_atom_site_fract_y
_atom_site_fract_z
V1     V     0.5   0.866   0.0
V2     V     0.866   0.5   0.0
V3     V     0.5   0.134   0.0
Er4     Er     0.634   0.634   0.0
Er5     Er     0.634   0.366   0.0
Er6     Er     0.366   0.634   0.0
Er7     Er     0.366   0.366   0.0
V8     V     0.134   0.5   0.0
loop_
_geom_bond_atom_site_label_1
_geom_bond_atom_site_label_2
_geom_bond_distance
_geom_bond_site_symmetry_2
_ccdc_geom_bond_type
V1     Er4    10.0   .     S
V1     Er6    10.0   .     S
V1     V3    10.0   1_565     S
V2     Er4    10.0   .     S
V2     Er5    10.0   .     S
V2     V8    10.0   1_655     S
V3     Er5    10.0   .     S
V3     Er7    10.0   .     S
V3     V1    10.0   1_545     S
Er4     Er5    10.0   .     S
Er4     Er6    10.0   .     S
Er5     Er7    10.0   .     S
Er6     Er7    10.0   .     S
Er6     V8    10.0   .     S
Er7     V8    10.0   .     S
V8     V2    10.0   1_455     S
