data_cpm
_audit_creation_date              2020-02-16
_audit_creation_method            'Pymatgen'
_symmetry_space_group_name_H-M    'P1'
_symmetry_Int_Tables_number       1
loop_
_symmetry_equiv_pos_as_xyz
  x,y,z
_cell_length_a                    54.6411
_cell_length_b                    54.6411
_cell_length_c                    20.0
_cell_angle_alpha                 90.0
_cell_angle_beta                 90.0
_cell_angle_gamma                 120.0
loop_
_atom_site_label
_atom_site_type_symbol
_atom_site_fract_x
_atom_site_fract_y
_atom_site_fract_z
V1     V     0.6057   0.8943   0.0
Er2     Er     0.5   0.0   0.0
V3     V     0.2887   0.8943   0.0
V4     V     0.3943   0.1057   0.0
V5     V     0.7113   0.1057   0.0
V6     V     0.6057   0.7113   0.0
Er7     Er     0.5   0.5   0.0
V8     V     0.3943   0.2887   0.0
V9     V     0.2887   0.3943   0.0
V10     V     0.7113   0.6057   0.0
V11     V     0.8943   0.2887   0.0
V12     V     0.8943   0.6057   0.0
V13     V     0.1057   0.3943   0.0
Er14     Er     0.0   0.5   0.0
V15     V     0.1057   0.7113   0.0
loop_
_geom_bond_atom_site_label_1
_geom_bond_atom_site_label_2
_geom_bond_distance
_geom_bond_site_symmetry_2
_ccdc_geom_bond_type
V1     V5    10.0   1_565     S
V1     Er2    10.0   1_565     S
V1     V6    10.0   .     S
Er2     V1    10.0   1_545     S
Er2     V4    10.0   .     S
Er2     V5    10.0   .     S
Er2     V3    10.0   1_545     S
V3     Er2    10.0   1_565     S
V3     V4    10.0   1_565     S
V3     V15    10.0   .     S
V4     V3    10.0   1_545     S
V4     V8    10.0   .     S
V5     V1    10.0   1_545     S
V5     V11    10.0   .     S
V6     V10    10.0   .     S
V6     Er7    10.0   .     S
Er7     V10    10.0   .     S
Er7     V8    10.0   .     S
Er7     V9    10.0   .     S
V8     V9    10.0   .     S
V9     V13    10.0   .     S
V10     V12    10.0   .     S
V11     V13    10.0   1_655     S
V11     Er14    10.0   1_655     S
V12     Er14    10.0   1_655     S
V12     V15    10.0   1_655     S
V13     V11    10.0   1_455     S
V13     Er14    10.0   .     S
Er14     V12    10.0   1_455     S
Er14     V15    10.0   .     S
Er14     V11    10.0   1_455     S
V15     V12    10.0   1_455     S
