data_cpo
_audit_creation_date              2020-02-16
_audit_creation_method            'Pymatgen'
_symmetry_space_group_name_H-M    'P1'
_symmetry_Int_Tables_number       1
loop_
_symmetry_equiv_pos_as_xyz
  x,y,z
_cell_length_a                    30.1756
_cell_length_b                    25.3215
_cell_length_c                    20.0
_cell_angle_alpha                 90.0
_cell_angle_beta                 90.0
_cell_angle_gamma                 90.0
loop_
_atom_site_label
_atom_site_type_symbol
_atom_site_fract_x
_atom_site_fract_y
_atom_site_fract_z
V1     V     0.5   0.8025   0.0
Er2     Er     0.287   0.5   0.0
V3     V     0.5   0.1975   0.0
Er4     Er     0.713   0.5   0.0
Er5     Er     0.787   0.0   0.0
V6     V     0.0   0.3025   0.0
Er7     Er     0.213   0.0   0.0
V8     V     0.0   0.6975   0.0
loop_
_geom_bond_atom_site_label_1
_geom_bond_atom_site_label_2
_geom_bond_distance
_geom_bond_site_symmetry_2
_ccdc_geom_bond_type
V1     Er5    10.0   1_565     S
V1     Er4    10.0   .     S
V1     Er2    10.0   .     S
V1     V3    10.0   1_565     S
V1     Er7    10.0   1_565     S
Er2     V3    10.0   .     S
Er2     V6    10.0   .     S
Er2     V8    10.0   .     S
V3     Er5    10.0   .     S
V3     Er4    10.0   .     S
V3     V1    10.0   1_545     S
V3     Er7    10.0   .     S
Er4     V8    10.0   1_655     S
Er4     V6    10.0   1_655     S
Er5     V1    10.0   1_545     S
Er5     V6    10.0   1_655     S
Er5     V8    10.0   1_645     S
V6     Er4    10.0   1_455     S
V6     Er5    10.0   1_455     S
V6     Er7    10.0   .     S
V6     V8    10.0   .     S
Er7     V1    10.0   1_545     S
Er7     V8    10.0   1_545     S
V8     Er4    10.0   1_455     S
V8     Er7    10.0   1_565     S
V8     Er5    10.0   1_465     S
