data_cpr
_audit_creation_date              2020-02-16
_audit_creation_method            'Pymatgen'
_symmetry_space_group_name_H-M    'P1'
_symmetry_Int_Tables_number       1
loop_
_symmetry_equiv_pos_as_xyz
  x,y,z
_cell_length_a                    20.0
_cell_length_b                    25.3232
_cell_length_c                    30.1939
_cell_angle_alpha                 90.0
_cell_angle_beta                 90.0
_cell_angle_gamma                 90.0
loop_
_atom_site_label
_atom_site_type_symbol
_atom_site_fract_x
_atom_site_fract_y
_atom_site_fract_z
V1     V     0.0   0.303   0.5
V2     V     0.0   0.697   0.5
Er3     Er     0.0   0.5   0.213
V4     V     0.0   0.197   0.0
V5     V     0.0   0.803   0.0
Er6     Er     0.0   0.0   0.713
loop_
_geom_bond_atom_site_label_1
_geom_bond_atom_site_label_2
_geom_bond_distance
_geom_bond_site_symmetry_2
_ccdc_geom_bond_type
V1     Er3    9.998   .     S
V1     V2    9.98   .     S
V1     Er6    10.012   .     S
V2     Er3    9.998   .     S
V2     Er6    10.012   1_565     S
Er3     V4    10.012   .     S
Er3     V5    10.012   .     S
V4     Er6    9.998   1_554     S
V4     V5    9.98   1_545     S
V5     Er6    9.998   1_564     S
V5     V4    9.98   1_565     S
Er6     V4    9.998   1_556     S
Er6     V5    9.998   1_546     S
Er6     V2    10.012   1_545     S
