data_cps
_audit_creation_date              2020-02-16
_audit_creation_method            'Pymatgen'
_symmetry_space_group_name_H-M    'P1'
_symmetry_Int_Tables_number       1
loop_
_symmetry_equiv_pos_as_xyz
  x,y,z
_cell_length_a                    38.2882
_cell_length_b                    38.2882
_cell_length_c                    20.0
_cell_angle_alpha                 90.0
_cell_angle_beta                 90.0
_cell_angle_gamma                 90.0
loop_
_atom_site_label
_atom_site_type_symbol
_atom_site_fract_x
_atom_site_fract_y
_atom_site_fract_z
Er1     Er     0.8154   0.3692   0.0
Er2     Er     0.6308   0.8154   0.0
V3     V     0.8154   0.0   0.0
V4     V     0.0   0.8154   0.0
Er5     Er     0.8154   0.6308   0.0
Er6     Er     0.3692   0.8154   0.0
V7     V     0.0   0.1846   0.0
V8     V     0.1846   0.0   0.0
Er9     Er     0.1846   0.3692   0.0
Er10     Er     0.3692   0.1846   0.0
Er11     Er     0.1846   0.6308   0.0
Er12     Er     0.6308   0.1846   0.0
loop_
_geom_bond_atom_site_label_1
_geom_bond_atom_site_label_2
_geom_bond_distance
_geom_bond_site_symmetry_2
_ccdc_geom_bond_type
Er1     V7    9.997   1_655     S
Er1     Er12    9.997   .     S
Er1     Er5    10.013   .     S
Er2     V3    9.997   1_565     S
Er2     Er5    9.997   .     S
Er2     Er6    10.013   .     S
V3     Er2    9.997   1_545     S
V3     V7    9.997   1_655     S
V3     V4    9.997   1_645     S
V3     Er12    9.997   .     S
V4     V8    9.997   1_565     S
V4     Er11    9.997   .     S
V4     V3    9.997   1_465     S
V4     Er5    9.997   1_455     S
Er5     V4    9.997   1_655     S
Er6     V8    9.997   1_565     S
Er6     Er11    9.997   .     S
V7     Er1    9.997   1_455     S
V7     V3    9.997   1_455     S
V7     V8    9.997   .     S
V7     Er9    9.997   .     S
V8     V4    9.997   1_545     S
V8     Er6    9.997   1_545     S
V8     Er10    9.997   .     S
Er9     Er10    9.997   .     S
Er9     Er11    10.013   .     S
Er10     Er12    10.013   .     S
