data_cpt
_audit_creation_date              2020-02-16
_audit_creation_method            'Pymatgen'
_symmetry_space_group_name_H-M    'P1'
_symmetry_Int_Tables_number       1
loop_
_symmetry_equiv_pos_as_xyz
  x,y,z
_cell_length_a                    57.3308
_cell_length_b                    57.3308
_cell_length_c                    20.0
_cell_angle_alpha                 90.0
_cell_angle_beta                 90.0
_cell_angle_gamma                 120.0
loop_
_atom_site_label
_atom_site_type_symbol
_atom_site_fract_x
_atom_site_fract_y
_atom_site_fract_z
V1     V     0.6239   0.7248   0.0
V2     V     0.6239   0.8992   0.0
V3     V     0.2752   0.3761   0.0
V4     V     0.1008   0.3761   0.0
V5     V     0.1008   0.7248   0.0
V6     V     0.2752   0.8992   0.0
Er7     Er     0.2752   0.5504   0.0
Er8     Er     0.2752   0.7248   0.0
Er9     Er     0.4496   0.7248   0.0
V10     V     0.3761   0.2752   0.0
V11     V     0.3761   0.1008   0.0
V12     V     0.7248   0.6239   0.0
V13     V     0.8992   0.6239   0.0
Er14     Er     0.5504   0.2752   0.0
V15     V     0.8992   0.2752   0.0
V16     V     0.7248   0.1008   0.0
Er17     Er     0.7248   0.2752   0.0
Er18     Er     0.7248   0.4496   0.0
loop_
_geom_bond_atom_site_label_1
_geom_bond_atom_site_label_2
_geom_bond_distance
_geom_bond_site_symmetry_2
_ccdc_geom_bond_type
V1     V2    9.997   .     S
V1     Er9    9.996   .     S
V1     V12    10.014   .     S
V2     Er9    9.996   .     S
V2     V16    10.014   1_565     S
V3     V4    9.997   .     S
V3     Er7    9.996   .     S
V3     V10    10.014   .     S
V4     Er7    9.996   .     S
V4     V15    10.014   1_455     S
V5     V6    9.997   .     S
V5     Er8    9.996   .     S
V5     V13    10.014   1_455     S
V6     Er8    9.996   .     S
V6     V11    10.014   1_565     S
Er7     Er8    9.997   .     S
Er7     Er9    9.997   .     S
Er8     Er9    9.997   .     S
V10     V11    9.997   .     S
V10     Er14    9.996   .     S
V11     V6    10.014   1_545     S
V11     Er14    9.996   .     S
V12     Er18    9.996   .     S
V12     V13    9.997   .     S
V13     V5    10.014   1_655     S
V13     Er18    9.996   .     S
Er14     Er17    9.997   .     S
Er14     Er18    9.997   .     S
V15     V16    9.997   .     S
V15     Er17    9.996   .     S
V15     V4    10.014   1_655     S
V16     V2    10.014   1_545     S
V16     Er17    9.996   .     S
Er17     Er18    9.997   .     S
