data_cpv
_audit_creation_date              2020-02-16
_audit_creation_method            'Pymatgen'
_symmetry_space_group_name_H-M    'P1'
_symmetry_Int_Tables_number       1
loop_
_symmetry_equiv_pos_as_xyz
  x,y,z
_cell_length_a                    39.3347
_cell_length_b                    39.3347
_cell_length_c                    20.0
_cell_angle_alpha                 90.0
_cell_angle_beta                 90.0
_cell_angle_gamma                 90.0
loop_
_atom_site_label
_atom_site_type_symbol
_atom_site_fract_x
_atom_site_fract_y
_atom_site_fract_z
V1     V     0.4628   0.7834   0.0
V2     V     0.2834   0.9628   0.0
Er3     Er     0.2172   0.7172   0.0
V4     V     0.7834   0.5372   0.0
V5     V     0.9628   0.7166   0.0
Er6     Er     0.7172   0.7828   0.0
V7     V     0.2166   0.4628   0.0
V8     V     0.0372   0.2834   0.0
Er9     Er     0.2828   0.2172   0.0
V10     V     0.5372   0.2166   0.0
V11     V     0.7166   0.0372   0.0
Er12     Er     0.7828   0.2828   0.0
loop_
_geom_bond_atom_site_label_1
_geom_bond_atom_site_label_2
_geom_bond_distance
_geom_bond_site_symmetry_2
_ccdc_geom_bond_type
V1     V2    9.976   .     S
V1     Er3    10.001   .     S
V1     Er6    10.011   .     S
V2     Er3    10.001   .     S
V2     Er9    10.011   1_565     S
Er3     V5    10.011   1_455     S
Er3     V7    10.011   .     S
V4     V5    9.976   .     S
V4     Er6    10.001   .     S
V4     Er12    10.011   .     S
V5     Er6    10.001   .     S
V5     Er3    10.011   1_655     S
Er6     V11    10.011   1_565     S
V7     V8    9.976   .     S
V7     Er9    10.001   .     S
V8     Er9    10.001   .     S
V8     Er12    10.011   1_455     S
Er9     V10    10.011   .     S
Er9     V2    10.011   1_545     S
V10     V11    9.976   .     S
V10     Er12    10.001   .     S
V11     Er6    10.011   1_545     S
V11     Er12    10.001   .     S
Er12     V8    10.011   1_655     S
