data_cpw
_audit_creation_date              2020-02-16
_audit_creation_method            'Pymatgen'
_symmetry_space_group_name_H-M    'P1'
_symmetry_Int_Tables_number       1
loop_
_symmetry_equiv_pos_as_xyz
  x,y,z
_cell_length_a                    37.3309
_cell_length_b                    37.3309
_cell_length_c                    20.0
_cell_angle_alpha                 90.0
_cell_angle_beta                 90.0
_cell_angle_gamma                 120.0
loop_
_atom_site_label
_atom_site_type_symbol
_atom_site_fract_x
_atom_site_fract_y
_atom_site_fract_z
V1     V     0.6011   0.6664   0.0
V2     V     0.3336   0.3989   0.0
V3     V     0.6011   0.9346   0.0
V4     V     0.3336   0.9346   0.0
Er5     Er     0.4883   0.2442   0.0
Er6     Er     0.7558   0.2442   0.0
Er7     Er     0.7558   0.5117   0.0
V8     V     0.0654   0.6664   0.0
V9     V     0.0654   0.3989   0.0
loop_
_geom_bond_atom_site_label_1
_geom_bond_atom_site_label_2
_geom_bond_distance
_geom_bond_site_symmetry_2
_ccdc_geom_bond_type
V1     Er7    10.006   .     S
V1     V3    10.012   .     S
V1     V2    9.988   .     S
V2     Er5    10.006   .     S
V2     V9    10.012   .     S
V3     Er6    10.006   1_565     S
V3     V4    9.988   .     S
V4     Er5    10.006   1_565     S
V4     V8    10.012   .     S
Er5     V4    10.006   1_545     S
Er5     Er7    9.988   .     S
Er5     Er6    9.988   .     S
Er6     V9    10.006   1_655     S
Er6     V3    10.006   1_545     S
Er6     Er7    9.988   .     S
Er7     V8    10.006   1_655     S
V8     Er7    10.006   1_455     S
V8     V9    9.988   .     S
V9     Er6    10.006   1_455     S
