data_cpx
_audit_creation_date              2020-02-16
_audit_creation_method            'Pymatgen'
_symmetry_space_group_name_H-M    'P1'
_symmetry_Int_Tables_number       1
loop_
_symmetry_equiv_pos_as_xyz
  x,y,z
_cell_length_a                    37.3308
_cell_length_b                    37.3308
_cell_length_c                    20.0
_cell_angle_alpha                 90.0
_cell_angle_beta                 90.0
_cell_angle_gamma                 120.0
loop_
_atom_site_label
_atom_site_type_symbol
_atom_site_fract_x
_atom_site_fract_y
_atom_site_fract_z
Er1     Er     0.4227   0.0   0.0
V2     V     0.5773   0.8455   0.0
V3     V     0.7318   0.1545   0.0
Er4     Er     0.0   0.4227   0.0
V5     V     0.1545   0.7318   0.0
V6     V     0.8455   0.5773   0.0
Er7     Er     0.5773   0.5773   0.0
V8     V     0.4227   0.2682   0.0
V9     V     0.2682   0.4227   0.0
loop_
_geom_bond_atom_site_label_1
_geom_bond_atom_site_label_2
_geom_bond_distance
_geom_bond_site_symmetry_2
_ccdc_geom_bond_type
Er1     V2    9.992   1_545     S
Er1     V3    9.992   .     S
Er1     V8    10.012   .     S
Er1     V5    10.012   1_545     S
V2     Er1    9.992   1_565     S
V2     V3    9.992   1_565     S
V2     Er7    10.012   .     S
V3     V2    9.992   1_545     S
V3     Er4    10.012   1_655     S
Er4     V6    9.992   1_455     S
Er4     V5    9.992   .     S
Er4     V9    10.012   .     S
Er4     V3    10.012   1_455     S
V5     Er1    10.012   1_565     S
V5     V6    9.992   1_455     S
V6     Er4    9.992   1_655     S
V6     V5    9.992   1_655     S
V6     Er7    10.012   .     S
Er7     V8    9.992   .     S
Er7     V9    9.992   .     S
V8     V9    9.992   .     S
