data_cpy
_audit_creation_date              2020-02-16
_audit_creation_method            'Pymatgen'
_symmetry_space_group_name_H-M    'P1'
_symmetry_Int_Tables_number       1
loop_
_symmetry_equiv_pos_as_xyz
  x,y,z
_cell_length_a                    74.633
_cell_length_b                    20.0132
_cell_length_c                    20.0
_cell_angle_alpha                 90.0
_cell_angle_beta                 90.0
_cell_angle_gamma                 90.0
loop_
_atom_site_label
_atom_site_type_symbol
_atom_site_fract_x
_atom_site_fract_y
_atom_site_fract_z
V1     V     0.6831   0.2502   0.0
V2     V     0.8169   0.2498   0.0
V3     V     0.6831   0.7498   0.0
V4     V     0.8169   0.7502   0.0
Er5     Er     0.9329   0.0   0.0
Er6     Er     0.5671   0.5   0.0
V7     V     0.3169   0.7498   0.0
V8     V     0.1831   0.7502   0.0
V9     V     0.3169   0.2502   0.0
V10     V     0.1831   0.2498   0.0
Er11     Er     0.0671   0.0   0.0
Er12     Er     0.4329   0.5   0.0
loop_
_geom_bond_atom_site_label_1
_geom_bond_atom_site_label_2
_geom_bond_distance
_geom_bond_site_symmetry_2
_ccdc_geom_bond_type
V1     V2    9.989   .     S
V1     Er6    9.994   .     S
V1     V3    9.998   .     S
V1     V3    10.015   1_545     S
V2     Er5    9.994   .     S
V2     V4    9.998   1_545     S
V2     V4    10.015   .     S
V3     V4    9.989   .     S
V3     Er6    9.994   .     S
V3     V1    10.015   1_565     S
V4     Er5    9.994   1_565     S
V4     V2    9.998   1_565     S
Er5     V4    9.994   1_545     S
Er5     Er11    10.02   1_655     S
Er6     Er12    10.02   .     S
V7     V8    9.989   .     S
V7     Er12    9.994   .     S
V7     V9    9.998   .     S
V7     V9    10.015   1_565     S
V8     Er11    9.994   1_565     S
V8     V10    9.998   1_565     S
V8     V10    10.015   .     S
V9     V10    9.989   .     S
V9     Er12    9.994   .     S
V9     V7    10.015   1_545     S
V10     Er11    9.994   .     S
V10     V8    9.998   1_545     S
Er11     V8    9.994   1_545     S
Er11     Er5    10.02   1_455     S
