data_cpz
_audit_creation_date              2020-02-16
_audit_creation_method            'Pymatgen'
_symmetry_space_group_name_H-M    'P1'
_symmetry_Int_Tables_number       1
loop_
_symmetry_equiv_pos_as_xyz
  x,y,z
_cell_length_a                    37.3164
_cell_length_b                    20.0134
_cell_length_c                    20.0
_cell_angle_alpha                 90.0
_cell_angle_beta                 90.0
_cell_angle_gamma                 90.0
loop_
_atom_site_label
_atom_site_type_symbol
_atom_site_fract_x
_atom_site_fract_y
_atom_site_fract_z
V1     V     0.3661   0.7498   0.0
V2     V     0.6338   0.7498   0.0
V3     V     0.3661   0.2502   0.0
V4     V     0.6338   0.2502   0.0
Er5     Er     0.8657   0.5   0.0
Er6     Er     0.1343   0.5   0.0
loop_
_geom_bond_atom_site_label_1
_geom_bond_atom_site_label_2
_geom_bond_distance
_geom_bond_site_symmetry_2
_ccdc_geom_bond_type
V1     V2    9.99   .     S
V1     Er6    9.993   .     S
V1     V3    9.998   .     S
V1     V3    10.016   1_565     S
V2     V4    9.998   .     S
V2     Er5    9.993   .     S
V2     V4    10.016   1_565     S
V3     V4    9.99   .     S
V3     Er6    9.993   .     S
V3     V1    10.016   1_545     S
V4     Er5    9.993   .     S
V4     V2    10.016   1_545     S
Er5     Er6    10.02   1_655     S
Er6     Er5    10.02   1_455     S
