data_cqa
_audit_creation_date              2020-02-16
_audit_creation_method            'Pymatgen'
_symmetry_space_group_name_H-M    'P1'
_symmetry_Int_Tables_number       1
loop_
_symmetry_equiv_pos_as_xyz
  x,y,z
_cell_length_a                    46.4578
_cell_length_b                    46.4578
_cell_length_c                    20.0
_cell_angle_alpha                 90.0
_cell_angle_beta                 90.0
_cell_angle_gamma                 120.0
loop_
_atom_site_label
_atom_site_type_symbol
_atom_site_fract_x
_atom_site_fract_y
_atom_site_fract_z
Er1     Er     0.2966   0.4594   0.0
Er2     Er     0.7034   0.5406   0.0
V3     V     0.5407   0.622   0.0
V4     V     0.4593   0.378   0.0
Er5     Er     0.8372   0.2966   0.0
Er6     Er     0.1628   0.7034   0.0
V7     V     0.0813   0.4593   0.0
V8     V     0.9187   0.5407   0.0
Er9     Er     0.5406   0.8372   0.0
Er10     Er     0.4594   0.1628   0.0
V11     V     0.622   0.0813   0.0
V12     V     0.378   0.9187   0.0
loop_
_geom_bond_atom_site_label_1
_geom_bond_atom_site_label_2
_geom_bond_distance
_geom_bond_site_symmetry_2
_ccdc_geom_bond_type
Er1     V4    10.0   .     S
Er1     V3    10.0   .     S
Er1     V7    10.0   .     S
Er2     V3    10.0   .     S
Er2     V4    10.0   .     S
Er2     V8    10.0   .     S
V3     V4    10.0   .     S
V3     Er9    10.0   .     S
V4     Er10    10.0   .     S
Er5     V7    10.0   1_655     S
Er5     V8    10.0   .     S
Er5     V11    10.0   .     S
Er6     V8    10.0   1_455     S
Er6     V7    10.0   .     S
Er6     V12    10.0   .     S
V7     Er5    10.0   1_455     S
V7     V8    10.0   1_455     S
V8     Er6    10.0   1_655     S
V8     V7    10.0   1_655     S
Er9     V11    10.0   1_565     S
Er9     V12    10.0   .     S
Er10     V12    10.0   1_545     S
Er10     V11    10.0   .     S
V11     Er9    10.0   1_545     S
V11     V12    10.0   1_545     S
V12     Er10    10.0   1_565     S
V12     V11    10.0   1_565     S
