data_cqb
_audit_creation_date              2020-02-16
_audit_creation_method            'Pymatgen'
_symmetry_space_group_name_H-M    'P1'
_symmetry_Int_Tables_number       1
loop_
_symmetry_equiv_pos_as_xyz
  x,y,z
_cell_length_a                    25.2647
_cell_length_b                    33.6945
_cell_length_c                    20.0
_cell_angle_alpha                 90.0
_cell_angle_beta                 90.0
_cell_angle_gamma                 90.0
loop_
_atom_site_label
_atom_site_type_symbol
_atom_site_fract_x
_atom_site_fract_y
_atom_site_fract_z
Er1     Er     0.6717   0.5738   0.0
V2     V     0.9431   0.3579   0.0
V3     V     0.0569   0.6421   0.0
Er4     Er     0.3283   0.4262   0.0
Er5     Er     0.8283   0.0738   0.0
V6     V     0.5569   0.8579   0.0
V7     V     0.4431   0.1421   0.0
Er8     Er     0.1717   0.9262   0.0
loop_
_geom_bond_atom_site_label_1
_geom_bond_atom_site_label_2
_geom_bond_distance
_geom_bond_site_symmetry_2
_ccdc_geom_bond_type
Er1     V3    10.0   1_655     S
Er1     V2    10.0   .     S
Er1     Er4    10.0   .     S
Er1     V6    10.0   .     S
V2     V3    10.0   1_655     S
V2     Er4    10.0   1_655     S
V2     Er5    10.0   .     S
V3     Er1    10.0   1_455     S
V3     V2    10.0   1_455     S
V3     Er4    10.0   .     S
V3     Er8    10.0   .     S
Er4     V2    10.0   1_455     S
Er4     V7    10.0   .     S
Er5     V7    10.0   .     S
Er5     V6    10.0   1_545     S
Er5     Er8    10.0   1_645     S
V6     Er5    10.0   1_565     S
V6     V7    10.0   1_565     S
V6     Er8    10.0   .     S
V7     V6    10.0   1_545     S
V7     Er8    10.0   1_545     S
Er8     V7    10.0   1_565     S
Er8     Er5    10.0   1_465     S
