data_cqc
_audit_creation_date              2020-02-16
_audit_creation_method            'Pymatgen'
_symmetry_space_group_name_H-M    'P1'
_symmetry_Int_Tables_number       1
loop_
_symmetry_equiv_pos_as_xyz
  x,y,z
_cell_length_a                    47.9024
_cell_length_b                    18.3197
_cell_length_c                    20.0
_cell_angle_alpha                 90.0
_cell_angle_beta                 90.0
_cell_angle_gamma                 90.0
loop_
_atom_site_label
_atom_site_type_symbol
_atom_site_fract_x
_atom_site_fract_y
_atom_site_fract_z
V1     V     0.6456   0.2802   0.0
V2     V     0.6456   0.7198   0.0
V3     V     0.3544   0.7198   0.0
V4     V     0.3544   0.2802   0.0
Er5     Er     0.5619   0.7802   0.0
Er6     Er     0.5619   0.2198   0.0
Er7     Er     0.4381   0.2198   0.0
Er8     Er     0.4381   0.7802   0.0
V9     V     0.1456   0.7198   0.0
V10     V     0.1456   0.2802   0.0
V11     V     0.8544   0.7198   0.0
V12     V     0.8544   0.2802   0.0
Er13     Er     0.9381   0.2198   0.0
Er14     Er     0.9381   0.7802   0.0
Er15     Er     0.0619   0.2198   0.0
Er16     Er     0.0619   0.7802   0.0
loop_
_geom_bond_atom_site_label_1
_geom_bond_atom_site_label_2
_geom_bond_distance
_geom_bond_site_symmetry_2
_ccdc_geom_bond_type
V1     Er5    10.0   .     S
V1     Er7    10.0   .     S
V1     Er5    10.0   1_545     S
V1     V12    10.0   .     S
V2     Er6    10.0   .     S
V2     Er8    10.0   .     S
V2     Er6    10.0   1_565     S
V2     V11    10.0   .     S
V3     Er7    10.0   .     S
V3     Er5    10.0   .     S
V3     Er7    10.0   1_565     S
V3     V9    10.0   .     S
V4     Er8    10.0   .     S
V4     Er6    10.0   .     S
V4     Er8    10.0   1_545     S
V4     V10    10.0   .     S
Er5     V1    10.0   1_565     S
Er5     Er7    10.0   1_565     S
Er6     V2    10.0   1_545     S
Er6     Er8    10.0   1_545     S
Er7     V3    10.0   1_545     S
Er7     Er5    10.0   1_545     S
Er8     V4    10.0   1_565     S
Er8     Er6    10.0   1_565     S
V9     Er15    10.0   .     S
V9     Er14    10.0   1_455     S
V9     Er15    10.0   1_565     S
V10     Er16    10.0   .     S
V10     Er13    10.0   1_455     S
V10     Er16    10.0   1_545     S
V11     Er13    10.0   .     S
V11     Er16    10.0   1_655     S
V11     Er13    10.0   1_565     S
V12     Er14    10.0   .     S
V12     Er15    10.0   1_655     S
V12     Er14    10.0   1_545     S
Er13     V11    10.0   1_545     S
Er13     V10    10.0   1_655     S
Er13     Er16    10.0   1_645     S
Er14     V12    10.0   1_565     S
Er14     V9    10.0   1_655     S
Er14     Er15    10.0   1_665     S
Er15     V12    10.0   1_455     S
Er15     V9    10.0   1_545     S
Er15     Er14    10.0   1_445     S
Er16     V11    10.0   1_455     S
Er16     V10    10.0   1_565     S
Er16     Er13    10.0   1_465     S
