data_cqe
_audit_creation_date              2020-02-16
_audit_creation_method            'Pymatgen'
_symmetry_space_group_name_H-M    'P1'
_symmetry_Int_Tables_number       1
loop_
_symmetry_equiv_pos_as_xyz
  x,y,z
_cell_length_a                    18.3994
_cell_length_b                    20.0
_cell_length_c                    25.1486
_cell_angle_alpha                 90.0
_cell_angle_beta                 71.4898
_cell_angle_gamma                 90.0
loop_
_atom_site_label
_atom_site_type_symbol
_atom_site_fract_x
_atom_site_fract_y
_atom_site_fract_z
V1     V     0.8374   0.0   0.8741
V2     V     0.1626   0.0   0.1259
Er3     Er     0.5913   0.0   0.2903
Er4     Er     0.4087   0.0   0.7097
loop_
_geom_bond_atom_site_label_1
_geom_bond_atom_site_label_2
_geom_bond_distance
_geom_bond_site_symmetry_2
_ccdc_geom_bond_type
V1     Er3    9.999   1_556     S
V1     V2    9.999   1_656     S
V1     Er4    10.0   1_655     S
V1     Er4    10.0   .     S
V2     Er4    9.999   1_554     S
V2     V1    9.999   1_454     S
V2     Er3    10.0   1_455     S
V2     Er3    10.0   .     S
Er3     V1    9.999   1_554     S
Er3     V2    10.0   1_655     S
Er3     Er4    10.0   .     S
Er4     V2    9.999   1_556     S
Er4     V1    10.0   1_455     S
