data_cqg
_audit_creation_date              2020-02-16
_audit_creation_method            'Pymatgen'
_symmetry_space_group_name_H-M    'P1'
_symmetry_Int_Tables_number       1
loop_
_symmetry_equiv_pos_as_xyz
  x,y,z
_cell_length_a                    70.0
_cell_length_b                    17.3206
_cell_length_c                    20.0
_cell_angle_alpha                 90.0
_cell_angle_beta                 90.0
_cell_angle_gamma                 90.0
loop_
_atom_site_label
_atom_site_type_symbol
_atom_site_fract_x
_atom_site_fract_y
_atom_site_fract_z
Er1     Er     0.0   0.0   0.0
V2     V     0.0714   0.5   0.0
Ti3     Ti     0.7143   0.0   0.0
Ti4     Ti     0.7857   0.5   0.0
V5     V     0.9286   0.5   0.0
Ti6     Ti     0.2143   0.5   0.0
Ti7     Ti     0.2857   0.0   0.0
Er8     Er     0.5   0.5   0.0
V9     V     0.5714   0.0   0.0
V10     V     0.4286   0.0   0.0
loop_
_geom_bond_atom_site_label_1
_geom_bond_atom_site_label_2
_geom_bond_distance
_geom_bond_site_symmetry_2
_ccdc_geom_bond_type
Er1     V5    10.0   1_445     S
Er1     V2    10.0   1_545     S
Er1     V2    10.0   .     S
Er1     V5    10.0   1_455     S
V2     Er1    10.0   1_565     S
V2     V5    10.0   1_455     S
V2     Ti6    10.0   .     S
Ti3     Ti4    10.0   .     S
Ti3     Ti4    10.0   1_545     S
Ti3     V9    10.0   .     S
Ti4     Ti3    10.0   1_565     S
Ti4     V5    10.0   .     S
V5     Er1    10.0   1_665     S
V5     Er1    10.0   1_655     S
V5     V2    10.0   1_655     S
Ti6     Ti7    10.0   1_565     S
Ti6     Ti7    10.0   .     S
Ti7     Ti6    10.0   1_545     S
Ti7     V10    10.0   .     S
Er8     V9    10.0   1_565     S
Er8     V10    10.0   1_565     S
Er8     V10    10.0   .     S
Er8     V9    10.0   .     S
V9     Er8    10.0   1_545     S
V9     V10    10.0   .     S
V10     Er8    10.0   1_545     S
