data_cqi
_audit_creation_date              2020-02-16
_audit_creation_method            'Pymatgen'
_symmetry_space_group_name_H-M    'P1'
_symmetry_Int_Tables_number       1
loop_
_symmetry_equiv_pos_as_xyz
  x,y,z
_cell_length_a                    16.1003
_cell_length_b                    43.7302
_cell_length_c                    20.0
_cell_angle_alpha                 90.0
_cell_angle_beta                 90.0
_cell_angle_gamma                 90.0
loop_
_atom_site_label
_atom_site_type_symbol
_atom_site_fract_x
_atom_site_fract_y
_atom_site_fract_z
Ti1     Ti     0.75   0.0678   0.0
Ti2     Ti     0.25   0.0678   0.0
Ti3     Ti     0.75   0.9322   0.0
Ti4     Ti     0.25   0.9322   0.0
Er5     Er     0.25   0.7035   0.0
Er6     Er     0.75   0.7035   0.0
V7     V     0.25   0.5678   0.0
V8     V     0.25   0.4322   0.0
V9     V     0.75   0.4322   0.0
V10     V     0.75   0.5678   0.0
Er11     Er     0.75   0.2965   0.0
Er12     Er     0.25   0.2965   0.0
loop_
_geom_bond_atom_site_label_1
_geom_bond_atom_site_label_2
_geom_bond_distance
_geom_bond_site_symmetry_2
_ccdc_geom_bond_type
Ti1     Ti4    10.0   1_545     S
Ti1     Ti4    10.0   1_645     S
Ti1     Er11    10.0   .     S
Ti2     Ti3    10.0   1_545     S
Ti2     Ti3    10.0   1_445     S
Ti2     Er12    10.0   .     S
Ti3     Ti2    10.0   1_565     S
Ti3     Ti2    10.0   1_665     S
Ti3     Er6    10.0   .     S
Ti4     Ti1    10.0   1_565     S
Ti4     Ti1    10.0   1_465     S
Ti4     Er5    10.0   .     S
Er5     V10    10.0   .     S
Er5     V10    10.0   1_455     S
Er6     V7    10.0   .     S
Er6     V7    10.0   1_655     S
V7     Er6    10.0   1_455     S
V7     V9    10.0   .     S
V7     V9    10.0   1_455     S
V8     V10    10.0   .     S
V8     V10    10.0   1_455     S
V8     Er11    10.0   .     S
V8     Er11    10.0   1_455     S
V9     V7    10.0   1_655     S
V9     Er12    10.0   .     S
V9     Er12    10.0   1_655     S
V10     Er5    10.0   1_655     S
V10     V8    10.0   1_655     S
Er11     V8    10.0   1_655     S
Er12     V9    10.0   1_455     S
