data_cqj
_audit_creation_date              2020-02-16
_audit_creation_method            'Pymatgen'
_symmetry_space_group_name_H-M    'P1'
_symmetry_Int_Tables_number       1
loop_
_symmetry_equiv_pos_as_xyz
  x,y,z
_cell_length_a                    40.9118
_cell_length_b                    40.9118
_cell_length_c                    20.0
_cell_angle_alpha                 90.0
_cell_angle_beta                 90.0
_cell_angle_gamma                 120.0
loop_
_atom_site_label
_atom_site_type_symbol
_atom_site_fract_x
_atom_site_fract_y
_atom_site_fract_z
Er1     Er     0.7556   0.7556   0.0
V2     V     0.2113   0.5121   0.0
V3     V     0.3008   0.7887   0.0
V4     V     0.4879   0.6992   0.0
Er5     Er     0.2444   0.0   0.0
V6     V     0.5121   0.2113   0.0
V7     V     0.7887   0.3008   0.0
V8     V     0.6992   0.4879   0.0
Er9     Er     0.0   0.2444   0.0
Ti10     Ti     0.0   0.0   0.0
loop_
_geom_bond_atom_site_label_1
_geom_bond_atom_site_label_2
_geom_bond_distance
_geom_bond_site_symmetry_2
_ccdc_geom_bond_type
Er1     Ti10    10.0   1_665     S
Er1     V8    10.0   .     S
Er1     V4    10.0   .     S
V2     V4    10.0   .     S
V2     V3    10.0   .     S
V2     Er9    10.0   .     S
V3     V4    10.0   .     S
V3     Er5    10.0   1_565     S
Er5     Ti10    10.0   .     S
Er5     V3    10.0   1_545     S
Er5     V6    10.0   .     S
V6     V8    10.0   .     S
V6     V7    10.0   .     S
V7     V8    10.0   .     S
V7     Er9    10.0   1_655     S
Er9     Ti10    10.0   .     S
Er9     V7    10.0   1_455     S
Ti10     Er1    10.0   1_445     S
