data_cql
_audit_creation_date              2020-02-16
_audit_creation_method            'Pymatgen'
_symmetry_space_group_name_H-M    'P1'
_symmetry_Int_Tables_number       1
loop_
_symmetry_equiv_pos_as_xyz
  x,y,z
_cell_length_a                    47.7832
_cell_length_b                    33.5371
_cell_length_c                    20.0
_cell_angle_alpha                 90.0
_cell_angle_beta                 90.0
_cell_angle_gamma                 90.0
loop_
_atom_site_label
_atom_site_type_symbol
_atom_site_fract_x
_atom_site_fract_y
_atom_site_fract_z
Ti1     Ti     0.5   0.5   0.0
Ti2     Ti     0.0   0.0   0.0
Er3     Er     0.8506   0.2087   0.0
Er4     Er     0.6494   0.2913   0.0
V5     V     0.6046   0.0   0.0
Er6     Er     0.8506   0.7913   0.0
Er7     Er     0.6494   0.7087   0.0
V8     V     0.8954   0.5   0.0
Er9     Er     0.3505   0.2913   0.0
Er10     Er     0.1494   0.2087   0.0
V11     V     0.1046   0.5   0.0
Er12     Er     0.3505   0.7087   0.0
Er13     Er     0.1494   0.7913   0.0
V14     V     0.3954   0.0   0.0
loop_
_geom_bond_atom_site_label_1
_geom_bond_atom_site_label_2
_geom_bond_distance
_geom_bond_site_symmetry_2
_ccdc_geom_bond_type
Ti1     Er4    10.0   .     S
Ti1     Er7    10.0   .     S
Ti1     Er9    10.0   .     S
Ti1     Er12    10.0   .     S
Ti2     Er10    10.0   .     S
Ti2     Er13    10.0   1_545     S
Ti2     Er6    10.0   1_445     S
Ti2     Er3    10.0   1_455     S
Er3     Ti2    10.0   1_655     S
Er3     Er4    10.0   .     S
Er3     V8    10.0   .     S
Er4     V5    10.0   .     S
V5     Er7    10.0   1_545     S
V5     V14    10.0   .     S
Er6     Ti2    10.0   1_665     S
Er6     Er7    10.0   .     S
Er6     V8    10.0   .     S
Er7     V5    10.0   1_565     S
V8     V11    10.0   1_655     S
Er9     Er10    10.0   .     S
Er9     V14    10.0   .     S
Er10     V11    10.0   .     S
V11     V8    10.0   1_455     S
V11     Er13    10.0   .     S
Er12     Er13    10.0   .     S
Er12     V14    10.0   1_565     S
Er13     Ti2    10.0   1_565     S
V14     Er12    10.0   1_545     S
