data_cqo
_audit_creation_date              2020-02-16
_audit_creation_method            'Pymatgen'
_symmetry_space_group_name_H-M    'P1'
_symmetry_Int_Tables_number       1
loop_
_symmetry_equiv_pos_as_xyz
  x,y,z
_cell_length_a                    25.6811
_cell_length_b                    44.1216
_cell_length_c                    20.0
_cell_angle_alpha                 90.0
_cell_angle_beta                 90.0
_cell_angle_gamma                 90.0
loop_
_atom_site_label
_atom_site_type_symbol
_atom_site_fract_x
_atom_site_fract_y
_atom_site_fract_z
V1     V     0.3637   0.0809   0.0
Er2     Er     0.9386   0.7762   0.0
Ti3     Ti     0.0   0.0   0.0
Er4     Er     0.0614   0.2238   0.0
V5     V     0.6363   0.9191   0.0
V6     V     0.8637   0.4191   0.0
Er7     Er     0.4386   0.7238   0.0
Ti8     Ti     0.5   0.5   0.0
Er9     Er     0.5614   0.2762   0.0
V10     V     0.1363   0.5809   0.0
loop_
_geom_bond_atom_site_label_1
_geom_bond_atom_site_label_2
_geom_bond_distance
_geom_bond_site_symmetry_2
_ccdc_geom_bond_type
V1     Er9    10.0   .     S
V1     Er4    10.0   .     S
V1     Ti3    10.0   .     S
V1     V5    10.0   1_545     S
Er2     V5    10.0   .     S
Er2     Ti3    10.0   1_665     S
Er2     V10    10.0   1_655     S
Ti3     V5    10.0   1_445     S
Ti3     Er2    10.0   1_445     S
Ti3     Er4    10.0   .     S
Er4     V6    10.0   1_455     S
V5     Ti3    10.0   1_665     S
V5     Er7    10.0   .     S
V5     V1    10.0   1_565     S
V6     Er4    10.0   1_655     S
V6     Er9    10.0   .     S
V6     Ti8    10.0   .     S
V6     V10    10.0   1_655     S
Er7     V10    10.0   .     S
Er7     Ti8    10.0   .     S
Ti8     V10    10.0   .     S
Ti8     Er9    10.0   .     S
V10     Er2    10.0   1_455     S
V10     V6    10.0   1_455     S
