data_cqq
_audit_creation_date              2020-02-16
_audit_creation_method            'Pymatgen'
_symmetry_space_group_name_H-M    'P1'
_symmetry_Int_Tables_number       1
loop_
_symmetry_equiv_pos_as_xyz
  x,y,z
_cell_length_a                    29.7695
_cell_length_b                    38.0621
_cell_length_c                    20.0
_cell_angle_alpha                 90.0
_cell_angle_beta                 90.0
_cell_angle_gamma                 90.0
loop_
_atom_site_label
_atom_site_type_symbol
_atom_site_fract_x
_atom_site_fract_y
_atom_site_fract_z
V1     V     0.6928   0.2848   0.0
Ti2     Ti     0.5   0.5   0.0
V3     V     0.3073   0.7152   0.0
Er4     Er     0.8346   0.523   0.0
Er5     Er     0.1654   0.477   0.0
V6     V     0.8072   0.7848   0.0
Ti7     Ti     0.0   0.0   0.0
V8     V     0.1928   0.2152   0.0
Er9     Er     0.3346   0.977   0.0
Er10     Er     0.6654   0.023   0.0
loop_
_geom_bond_atom_site_label_1
_geom_bond_atom_site_label_2
_geom_bond_distance
_geom_bond_site_symmetry_2
_ccdc_geom_bond_type
V1     Ti2    10.0   .     S
V1     Er4    10.0   .     S
V1     Er10    10.0   .     S
Ti2     Er4    10.0   .     S
Ti2     V3    10.0   .     S
Ti2     Er5    10.0   .     S
V3     Er5    10.0   .     S
V3     Er9    10.0   .     S
Er4     Er5    10.0   1_655     S
Er4     V6    10.0   .     S
Er5     Er4    10.0   1_455     S
Er5     V8    10.0   .     S
V6     Ti7    10.0   1_665     S
V6     Er10    10.0   1_565     S
Ti7     V6    10.0   1_445     S
Ti7     Er10    10.0   1_455     S
Ti7     V8    10.0   .     S
Ti7     Er9    10.0   1_545     S
V8     Er9    10.0   1_545     S
Er9     Ti7    10.0   1_565     S
Er9     V8    10.0   1_565     S
Er9     Er10    10.0   1_565     S
Er10     Ti7    10.0   1_655     S
Er10     V6    10.0   1_545     S
Er10     Er9    10.0   1_545     S
