data_cqu
_audit_creation_date              2020-02-16
_audit_creation_method            'Pymatgen'
_symmetry_space_group_name_H-M    'P1'
_symmetry_Int_Tables_number       1
loop_
_symmetry_equiv_pos_as_xyz
  x,y,z
_cell_length_a                    59.5978
_cell_length_b                    27.8571
_cell_length_c                    20.0
_cell_angle_alpha                 90.0
_cell_angle_beta                 90.0
_cell_angle_gamma                 90.0
loop_
_atom_site_label
_atom_site_type_symbol
_atom_site_fract_x
_atom_site_fract_y
_atom_site_fract_z
Ti1     Ti     0.0436   0.8466   0.0
Ti2     Ti     0.9564   0.1533   0.0
Ti3     Ti     0.5436   0.6534   0.0
Ti4     Ti     0.4564   0.3466   0.0
V5     V     0.8431   0.6275   0.0
Er6     Er     0.8097   0.9792   0.0
V7     V     0.6569   0.1275   0.0
Er8     Er     0.6903   0.4792   0.0
Ce9     Ce     0.5   0.0   0.0
Ce10     Ce     0.0   0.5   0.0
V11     V     0.1569   0.3725   0.0
Er12     Er     0.1903   0.0208   0.0
V13     V     0.3431   0.8725   0.0
Er14     Er     0.3097   0.5208   0.0
loop_
_geom_bond_atom_site_label_1
_geom_bond_atom_site_label_2
_geom_bond_distance
_geom_bond_site_symmetry_2
_ccdc_geom_bond_type
Ti1     Er12    10.0   1_565     S
Ti1     Ce10    10.0   .     S
Ti1     Ti2    10.0   1_465     S
Ti2     Er6    10.0   1_545     S
Ti2     Ce10    10.0   1_655     S
Ti2     Ti1    10.0   1_645     S
Ti3     Er8    10.0   .     S
Ti3     Ce9    10.0   1_565     S
Ti3     Ti4    10.0   .     S
Ti4     Er14    10.0   .     S
Ti4     Ce9    10.0   .     S
V5     Er6    10.0   .     S
V5     Er8    10.0   .     S
V5     Ce10    10.0   1_655     S
Er6     Ti2    10.0   1_565     S
Er6     V7    10.0   1_565     S
V7     Er8    10.0   .     S
V7     Er6    10.0   1_545     S
V7     Ce9    10.0   .     S
Ce9     Ti3    10.0   1_545     S
Ce9     V13    10.0   1_545     S
Ce10     Ti2    10.0   1_455     S
Ce10     V5    10.0   1_455     S
Ce10     V11    10.0   .     S
V11     Er12    10.0   .     S
V11     Er14    10.0   .     S
Er12     Ti1    10.0   1_545     S
Er12     V13    10.0   1_545     S
V13     Er14    10.0   .     S
V13     Er12    10.0   1_565     S
V13     Ce9    10.0   1_565     S
