data_cqv
_audit_creation_date              2020-02-16
_audit_creation_method            'Pymatgen'
_symmetry_space_group_name_H-M    'P1'
_symmetry_Int_Tables_number       1
loop_
_symmetry_equiv_pos_as_xyz
  x,y,z
_cell_length_a                    28.5961
_cell_length_b                    20.0
_cell_length_c                    28.7877
_cell_angle_alpha                 90.0
_cell_angle_beta                 84.4778
_cell_angle_gamma                 90.0
loop_
_atom_site_label
_atom_site_type_symbol
_atom_site_fract_x
_atom_site_fract_y
_atom_site_fract_z
Ti1     Ti     0.3489   0.0   0.9259
Er2     Er     0.5835   0.0   0.6448
Er3     Er     0.4165   0.0   0.3552
Ti4     Ti     0.6511   0.0   0.0741
V5     V     0.0696   0.0   0.3339
V6     V     0.9304   0.0   0.6661
Ce7     Ce     0.0   0.0   0.0
loop_
_geom_bond_atom_site_label_1
_geom_bond_atom_site_label_2
_geom_bond_distance
_geom_bond_site_symmetry_2
_ccdc_geom_bond_type
Ti1     Er2    10.0   .     S
Ti1     Ti4    10.0   1_556     S
Ti1     Ce7    10.0   1_556     S
Er2     V6    10.0   .     S
Er2     Er3    10.0   .     S
Er3     Ti4    10.0   .     S
Er3     V5    10.0   .     S
Ti4     Ti1    10.0   1_554     S
Ti4     Ce7    10.0   1_655     S
V5     V6    10.0   1_455     S
V5     Ce7    10.0   .     S
V6     V5    10.0   1_655     S
V6     Ce7    10.0   1_656     S
Ce7     Ti4    10.0   1_455     S
Ce7     Ti1    10.0   1_554     S
Ce7     V6    10.0   1_454     S
