data_cqx
_audit_creation_date              2020-02-16
_audit_creation_method            'Pymatgen'
_symmetry_space_group_name_H-M    'P1'
_symmetry_Int_Tables_number       1
loop_
_symmetry_equiv_pos_as_xyz
  x,y,z
_cell_length_a                    20.0
_cell_length_b                    19.6995
_cell_length_c                    38.7875
_cell_angle_alpha                 90.0
_cell_angle_beta                 90.0
_cell_angle_gamma                 90.0
loop_
_atom_site_label
_atom_site_type_symbol
_atom_site_fract_x
_atom_site_fract_y
_atom_site_fract_z
Ti1     Ti     0.0   0.9129   0.8023
V2     V     0.0   0.587   0.0
Er3     Er     0.0   0.087   0.0445
Ti4     Ti     0.0   0.0871   0.3023
V5     V     0.0   0.413   0.5
Er6     Er     0.0   0.913   0.5445
loop_
_geom_bond_atom_site_label_1
_geom_bond_atom_site_label_2
_geom_bond_distance
_geom_bond_site_symmetry_2
_ccdc_geom_bond_type
Ti1     V2    10.0   1_556     S
Ti1     Er3    10.0   1_566     S
Ti1     Er6    10.0   .     S
V2     Ti1    10.0   1_554     S
V2     Er3    10.0   1_565     S
V2     Er3    10.0   .     S
Er3     Ti1    10.0   1_544     S
Er3     V2    10.0   1_545     S
Er3     Ti4    10.0   .     S
Ti4     V5    10.0   .     S
Ti4     Er6    10.0   1_545     S
V5     Er6    10.0   1_545     S
V5     Er6    10.0   .     S
Er6     Ti4    10.0   1_565     S
Er6     V5    10.0   1_565     S
