data_cqz
_audit_creation_date              2020-02-16
_audit_creation_method            'Pymatgen'
_symmetry_space_group_name_H-M    'P1'
_symmetry_Int_Tables_number       1
loop_
_symmetry_equiv_pos_as_xyz
  x,y,z
_cell_length_a                    23.9673
_cell_length_b                    43.7603
_cell_length_c                    20.0
_cell_angle_alpha                 90.0
_cell_angle_beta                 90.0
_cell_angle_gamma                 90.0
loop_
_atom_site_label
_atom_site_type_symbol
_atom_site_fract_x
_atom_site_fract_y
_atom_site_fract_z
V1     V     0.8806   0.4063   0.0
V2     V     0.1194   0.5937   0.0
Er3     Er     0.2389   0.8126   0.0
Er4     Er     0.7611   0.1874   0.0
Ti5     Ti     0.0   0.0   0.0
V6     V     0.3806   0.0937   0.0
V7     V     0.6194   0.9063   0.0
Er8     Er     0.2611   0.3126   0.0
Er9     Er     0.7389   0.6874   0.0
Ti10     Ti     0.5   0.5   0.0
loop_
_geom_bond_atom_site_label_1
_geom_bond_atom_site_label_2
_geom_bond_distance
_geom_bond_site_symmetry_2
_ccdc_geom_bond_type
V1     Er8    10.0   1_655     S
V1     Er4    10.0   .     S
V1     Ti10    10.0   .     S
V1     V2    10.001   1_655     S
V2     Er9    10.0   1_455     S
V2     Er3    10.0   .     S
V2     Ti10    10.0   .     S
V2     V1    10.001   1_455     S
Er3     Ti5    10.0   1_565     S
Er3     V7    10.0   .     S
Er4     Ti5    10.0   1_655     S
Er4     V6    10.0   .     S
Ti5     Er3    10.0   1_545     S
Ti5     Er4    10.0   1_455     S
Ti5     V6    10.0   .     S
Ti5     V7    10.0   1_445     S
V6     Er8    10.0   .     S
V6     V7    10.001   1_545     S
V7     Er9    10.0   .     S
V7     Ti5    10.0   1_665     S
V7     V6    10.001   1_565     S
Er8     V1    10.0   1_455     S
Er8     Ti10    10.0   .     S
Er9     V2    10.0   1_655     S
Er9     Ti10    10.0   .     S
