data_cru
_audit_creation_date              2020-02-16
_audit_creation_method            'Pymatgen'
_symmetry_space_group_name_H-M    'P1'
_symmetry_Int_Tables_number       1
loop_
_symmetry_equiv_pos_as_xyz
  x,y,z
_cell_length_a                    34.8507
_cell_length_b                    24.5668
_cell_length_c                    20.0
_cell_angle_alpha                 90.0
_cell_angle_beta                 90.0
_cell_angle_gamma                 90.0
loop_
_atom_site_label
_atom_site_type_symbol
_atom_site_fract_x
_atom_site_fract_y
_atom_site_fract_z
V1     V     0.9339   0.8191   0.0
Er2     Er     0.8415   0.4339   0.0
V3     V     0.0661   0.1809   0.0
Er4     Er     0.1585   0.5661   0.0
V5     V     0.4339   0.6809   0.0
Er6     Er     0.3415   0.0661   0.0
V7     V     0.5661   0.3191   0.0
Er8     Er     0.6585   0.9339   0.0
loop_
_geom_bond_atom_site_label_1
_geom_bond_atom_site_label_2
_geom_bond_distance
_geom_bond_site_symmetry_2
_ccdc_geom_bond_type
V1     Er2    9.995   .     S
V1     Er4    9.995   1_655     S
V1     Er8    10.003   .     S
V1     V3    10.014   1_665     S
Er2     V3    9.995   1_655     S
Er2     V7    10.003   .     S
V3     Er2    9.995   1_455     S
V3     Er4    9.995   .     S
V3     Er6    10.003   .     S
V3     V1    10.014   1_445     S
Er4     V1    9.995   1_455     S
Er4     V5    10.003   .     S
V5     Er6    9.995   1_565     S
V5     Er8    9.995   .     S
V5     V7    10.014   .     S
Er6     V5    9.995   1_545     S
Er6     V7    9.995   .     S
V7     Er8    9.995   1_545     S
Er8     V7    9.995   1_565     S
