data_crx
_audit_creation_date              2020-02-16
_audit_creation_method            'Pymatgen'
_symmetry_space_group_name_H-M    'P1'
_symmetry_Int_Tables_number       1
loop_
_symmetry_equiv_pos_as_xyz
  x,y,z
_cell_length_a                    33.7085
_cell_length_b                    33.7085
_cell_length_c                    20.0
_cell_angle_alpha                 90.0
_cell_angle_beta                 90.0
_cell_angle_gamma                 90.0
loop_
_atom_site_label
_atom_site_type_symbol
_atom_site_fract_x
_atom_site_fract_y
_atom_site_fract_z
V1     V     0.7098   0.7098   0.0
V2     V     0.2902   0.7098   0.0
V3     V     0.7098   0.2902   0.0
Ti4     Ti     0.6483   0.0   0.0
Ti5     Ti     0.3517   0.0   0.0
V6     V     0.2902   0.2902   0.0
Ti7     Ti     0.0   0.6483   0.0
Ti8     Ti     0.0   0.3517   0.0
Er9     Er     0.5   0.5   0.0
loop_
_geom_bond_atom_site_label_1
_geom_bond_atom_site_label_2
_geom_bond_distance
_geom_bond_site_symmetry_2
_ccdc_geom_bond_type
V1     Er9    10.0   .     S
V1     Ti4    10.0   1_565     S
V1     Ti7    10.0   1_655     S
V2     Er9    10.0   .     S
V2     Ti5    10.0   1_565     S
V2     Ti7    10.0   .     S
V3     Er9    10.0   .     S
V3     Ti4    10.0   .     S
V3     Ti8    10.0   1_655     S
Ti4     V1    10.0   1_545     S
Ti4     Ti5    10.0   .     S
Ti5     V6    10.0   .     S
Ti5     V2    10.0   1_545     S
V6     Er9    10.0   .     S
V6     Ti8    10.0   .     S
Ti7     V1    10.0   1_455     S
Ti7     Ti8    10.0   .     S
Ti8     V3    10.0   1_455     S
