data_cry
_audit_creation_date              2020-02-16
_audit_creation_method            'Pymatgen'
_symmetry_space_group_name_H-M    'P1'
_symmetry_Int_Tables_number       1
loop_
_symmetry_equiv_pos_as_xyz
  x,y,z
_cell_length_a                    49.5578
_cell_length_b                    49.5578
_cell_length_c                    20.0
_cell_angle_alpha                 90.0
_cell_angle_beta                 90.0
_cell_angle_gamma                 120.0
loop_
_atom_site_label
_atom_site_type_symbol
_atom_site_fract_x
_atom_site_fract_y
_atom_site_fract_z
Er1     Er     0.0   0.6009   0.0
Er2     Er     0.0   0.3991   0.0
Ti3     Ti     0.2168   0.4337   0.0
Ti4     Ti     0.2168   0.7832   0.0
Ti5     Ti     0.5663   0.7832   0.0
V6     V     0.3333   0.6667   0.0
Er7     Er     0.6009   0.0   0.0
Er8     Er     0.3991   0.0   0.0
Er9     Er     0.6009   0.6009   0.0
Er10     Er     0.3991   0.3991   0.0
Ti11     Ti     0.7832   0.5663   0.0
Ti12     Ti     0.7832   0.2168   0.0
V13     V     0.6667   0.3333   0.0
Ti14     Ti     0.4337   0.2168   0.0
loop_
_geom_bond_atom_site_label_1
_geom_bond_atom_site_label_2
_geom_bond_distance
_geom_bond_site_symmetry_2
_ccdc_geom_bond_type
Er1     Er2    10.0   .     S
Er1     Ti4    10.0   .     S
Er1     Ti11    10.0   1_455     S
Er2     Ti3    10.0   .     S
Er2     Ti12    10.0   1_455     S
Ti3     Er10    10.0   .     S
Ti3     V6    10.0   .     S
Ti4     Er8    10.0   1_565     S
Ti4     V6    10.0   .     S
Ti5     Er7    10.0   1_565     S
Ti5     Er9    10.0   .     S
Ti5     V6    10.0   .     S
Er7     Ti5    10.0   1_545     S
Er7     Er8    10.0   .     S
Er7     Ti12    10.0   .     S
Er8     Ti4    10.0   1_545     S
Er8     Ti14    10.0   .     S
Er9     Er10    10.0   .     S
Er9     Ti11    10.0   .     S
Er10     Ti14    10.0   .     S
Ti11     Er1    10.0   1_655     S
Ti11     V13    10.0   .     S
Ti12     Er2    10.0   1_655     S
Ti12     V13    10.0   .     S
V13     Ti14    10.0   .     S
