data_crz
_audit_creation_date              2020-02-16
_audit_creation_method            'Pymatgen'
_symmetry_space_group_name_H-M    'P1'
_symmetry_Int_Tables_number       1
loop_
_symmetry_equiv_pos_as_xyz
  x,y,z
_cell_length_a                    34.6412
_cell_length_b                    34.6412
_cell_length_c                    20.0
_cell_angle_alpha                 90.0
_cell_angle_beta                 90.0
_cell_angle_gamma                 120.0
loop_
_atom_site_label
_atom_site_type_symbol
_atom_site_fract_x
_atom_site_fract_y
_atom_site_fract_z
Ti1     Ti     0.6667   0.3333   0.0
Ti2     Ti     0.3333   0.6667   0.0
V3     V     0.6667   0.8333   0.0
Er4     Er     0.0   0.0   0.0
V5     V     0.8333   0.1667   0.0
V6     V     0.3333   0.1667   0.0
V7     V     0.1667   0.3333   0.0
V8     V     0.1667   0.8333   0.0
V9     V     0.8333   0.6667   0.0
loop_
_geom_bond_atom_site_label_1
_geom_bond_atom_site_label_2
_geom_bond_distance
_geom_bond_site_symmetry_2
_ccdc_geom_bond_type
Ti1     V9    10.0   .     S
Ti1     V6    10.0   .     S
Ti1     V5    10.0   .     S
Ti2     V3    10.0   .     S
Ti2     V8    10.0   .     S
Ti2     V7    10.0   .     S
V3     V9    10.0   .     S
V3     Er4    10.0   1_665     S
V3     V5    10.0   1_565     S
Er4     V7    10.0   .     S
Er4     V5    10.0   1_455     S
Er4     V8    10.0   1_545     S
Er4     V6    10.0   .     S
Er4     V3    10.0   1_445     S
Er4     V9    10.0   1_445     S
V5     Er4    10.0   1_655     S
V5     V3    10.0   1_545     S
V5     V7    10.0   1_655     S
V6     V7    10.0   .     S
V6     V8    10.0   1_545     S
V7     V5    10.0   1_455     S
V8     Er4    10.0   1_565     S
V8     V6    10.0   1_565     S
V8     V9    10.0   1_455     S
V9     Er4    10.0   1_665     S
V9     V8    10.0   1_655     S
