data_dha
_audit_creation_date              2020-02-16
_audit_creation_method            'Pymatgen'
_symmetry_space_group_name_H-M    'P1'
_symmetry_Int_Tables_number       1
loop_
_symmetry_equiv_pos_as_xyz
  x,y,z
_cell_length_a                    27.3363
_cell_length_b                    27.3363
_cell_length_c                    20.0
_cell_angle_alpha                 90.0
_cell_angle_beta                 90.0
_cell_angle_gamma                 90.0
loop_
_atom_site_label
_atom_site_type_symbol
_atom_site_fract_x
_atom_site_fract_y
_atom_site_fract_z
Er1     Er     0.0   0.5   0.0
V2     V     0.6825   0.6825   0.0
V3     V     0.6825   0.3175   0.0
V4     V     0.3175   0.6825   0.0
V5     V     0.3175   0.3175   0.0
Er6     Er     0.5   0.0   0.0
loop_
_geom_bond_atom_site_label_1
_geom_bond_atom_site_label_2
_geom_bond_distance
_geom_bond_site_symmetry_2
_ccdc_geom_bond_type
Er1     V2    10.011   1_455     S
Er1     V3    10.011   1_455     S
Er1     V5    10.011   .     S
Er1     V4    10.011   .     S
V2     V3    9.978   .     S
V2     V4    9.978   .     S
V2     Er1    10.011   1_655     S
V2     Er6    10.011   1_565     S
V3     V5    9.978   .     S
V3     Er1    10.011   1_655     S
V3     Er6    10.011   .     S
V4     V5    9.978   .     S
V4     Er6    10.011   1_565     S
V5     Er6    10.011   .     S
Er6     V4    10.011   1_545     S
Er6     V2    10.011   1_545     S
