data_dhg
_audit_creation_date              2020-02-16
_audit_creation_method            'Pymatgen'
_symmetry_space_group_name_H-M    'P1'
_symmetry_Int_Tables_number       1
loop_
_symmetry_equiv_pos_as_xyz
  x,y,z
_cell_length_a                    34.3097
_cell_length_b                    34.3097
_cell_length_c                    20.0
_cell_angle_alpha                 90.0
_cell_angle_beta                 90.0
_cell_angle_gamma                 120.0
loop_
_atom_site_label
_atom_site_type_symbol
_atom_site_fract_x
_atom_site_fract_y
_atom_site_fract_z
V1     V     0.6667   0.3333   0.0
Ti2     Ti     0.8317   0.0   0.0
Ti3     Ti     0.0   0.8317   0.0
Ti4     Ti     0.1683   0.1683   0.0
Er5     Er     0.4597   0.4597   0.0
Er6     Er     0.0   0.5403   0.0
Er7     Er     0.5403   0.0   0.0
V8     V     0.3333   0.6667   0.0
loop_
_geom_bond_atom_site_label_1
_geom_bond_atom_site_label_2
_geom_bond_distance
_geom_bond_site_symmetry_2
_ccdc_geom_bond_type
V1     Er7    10.0   .     S
V1     Er6    10.0   1_655     S
V1     Er5    10.0   .     S
Ti2     Ti3    10.0   1_645     S
Ti2     Ti4    10.0   1_655     S
Ti2     Er7    10.0   .     S
Ti3     Ti2    10.0   1_465     S
Ti3     Ti4    10.0   1_565     S
Ti3     Er6    10.0   .     S
Ti4     Ti2    10.0   1_455     S
Ti4     Ti3    10.0   1_545     S
Ti4     Er5    10.0   .     S
Er5     V8    10.0   .     S
Er6     V1    10.0   1_455     S
Er6     V8    10.0   .     S
Er7     V8    10.0   1_545     S
V8     Er7    10.0   1_565     S
