data_fss
_audit_creation_date              2020-02-16
_audit_creation_method            'Pymatgen'
_symmetry_space_group_name_H-M    'P1'
_symmetry_Int_Tables_number       1
loop_
_symmetry_equiv_pos_as_xyz
  x,y,z
_cell_length_a                    49.3621
_cell_length_b                    49.3621
_cell_length_c                    20.0
_cell_angle_alpha                 90.0
_cell_angle_beta                 90.0
_cell_angle_gamma                 120.0
loop_
_atom_site_label
_atom_site_type_symbol
_atom_site_fract_x
_atom_site_fract_y
_atom_site_fract_z
V1     V     0.0   0.0   0.0
Er2     Er     0.0   0.2026   0.0
Er3     Er     0.2026   0.0   0.0
Er4     Er     0.7974   0.7974   0.0
Ce5     Ce     0.4063   0.5232   0.0
Ce6     Ce     0.5232   0.4063   0.0
Ti7     Ti     0.4253   0.1733   0.0
Ti8     Ti     0.1733   0.4253   0.0
Ti9     Ti     0.5747   0.748   0.0
Ce10     Ce     0.4768   0.883   0.0
Ce11     Ce     0.5937   0.117   0.0
Ti12     Ti     0.8267   0.252   0.0
Ce13     Ce     0.117   0.5937   0.0
Ce14     Ce     0.883   0.4768   0.0
Ti15     Ti     0.252   0.8267   0.0
Ti16     Ti     0.748   0.5747   0.0
loop_
_geom_bond_atom_site_label_1
_geom_bond_atom_site_label_2
_geom_bond_distance
_geom_bond_site_symmetry_2
_ccdc_geom_bond_type
V1     Er2    10.0   .     S
V1     Er4    10.0   1_445     S
V1     Er3    10.0   .     S
Er2     Ti12    10.0   1_455     S
Er2     Ti8    10.0   .     S
Er3     Ti15    10.0   1_545     S
Er3     Ti7    10.0   .     S
Er4     V1    10.0   1_665     S
Er4     Ti9    10.0   .     S
Er4     Ti16    10.0   .     S
Ce5     Ce6    10.0   .     S
Ce5     Ti8    10.0   .     S
Ce5     Ti9    10.0   .     S
Ce6     Ti7    10.0   .     S
Ce6     Ti16    10.0   .     S
Ti7     Ce11    10.0   .     S
Ti8     Ce13    10.0   .     S
Ti9     Ce10    10.0   .     S
Ce10     Ce11    10.0   1_565     S
Ce10     Ti15    10.0   .     S
Ce11     Ce10    10.0   1_545     S
Ce11     Ti12    10.0   .     S
Ti12     Er2    10.0   1_655     S
Ti12     Ce14    10.0   .     S
Ce13     Ce14    10.0   1_455     S
Ce13     Ti15    10.0   .     S
Ce14     Ce13    10.0   1_655     S
Ce14     Ti16    10.0   .     S
Ti15     Er3    10.0   1_565     S
