data_fwb
_audit_creation_date              2020-02-16
_audit_creation_method            'Pymatgen'
_symmetry_space_group_name_H-M    'P1'
_symmetry_Int_Tables_number       1
loop_
_symmetry_equiv_pos_as_xyz
  x,y,z
_cell_length_a                    40.0056
_cell_length_b                    40.0056
_cell_length_c                    20.0
_cell_angle_alpha                 90.0
_cell_angle_beta                 90.0
_cell_angle_gamma                 120.0
loop_
_atom_site_label
_atom_site_type_symbol
_atom_site_fract_x
_atom_site_fract_y
_atom_site_fract_z
V1     V     0.75   0.4999   0.0
V2     V     0.5001   0.25   0.0
V3     V     0.75   0.25   0.0
V4     V     0.25   0.5001   0.0
V5     V     0.25   0.75   0.0
V6     V     0.4999   0.75   0.0
Er7     Er     0.5   0.0   0.0
Er8     Er     0.5   0.5   0.0
Er9     Er     0.0   0.5   0.0
loop_
_geom_bond_atom_site_label_1
_geom_bond_atom_site_label_2
_geom_bond_distance
_geom_bond_site_symmetry_2
_ccdc_geom_bond_type
V1     Er8    10.001   .     S
V1     Er9    10.001   1_655     S
V1     V3    9.997   .     S
V1     V2    9.997   .     S
V2     Er8    10.001   .     S
V2     Er7    10.001   .     S
V2     V3    9.997   .     S
V3     Er7    10.001   .     S
V3     Er9    10.001   1_655     S
V4     Er9    10.001   .     S
V4     Er8    10.001   .     S
V4     V6    9.997   .     S
V4     V5    9.997   .     S
V5     Er7    10.001   1_565     S
V5     Er9    10.001   .     S
V5     V6    9.997   .     S
V6     Er7    10.001   1_565     S
V6     Er8    10.001   .     S
Er7     V5    10.001   1_545     S
Er7     V6    10.001   1_545     S
Er9     V1    10.001   1_455     S
Er9     V3    10.001   1_455     S
