data_fwc
_audit_creation_date              2020-02-16
_audit_creation_method            'Pymatgen'
_symmetry_space_group_name_H-M    'P1'
_symmetry_Int_Tables_number       1
loop_
_symmetry_equiv_pos_as_xyz
  x,y,z
_cell_length_a                    17.9761
_cell_length_b                    57.3133
_cell_length_c                    20.0
_cell_angle_alpha                 90.0
_cell_angle_beta                 90.0
_cell_angle_gamma                 90.0
loop_
_atom_site_label
_atom_site_type_symbol
_atom_site_fract_x
_atom_site_fract_y
_atom_site_fract_z
Ti1     Ti     0.75   0.75   0.0
Ti2     Ti     0.25   0.75   0.0
Er3     Er     0.0   0.5931   0.0
Er4     Er     0.5   0.9069   0.0
Ti5     Ti     0.75   0.25   0.0
Ti6     Ti     0.25   0.25   0.0
Er7     Er     0.5   0.0931   0.0
Er8     Er     0.0   0.4069   0.0
V9     V     0.0   0.0   0.0
V10     V     0.5   0.5   0.0
loop_
_geom_bond_atom_site_label_1
_geom_bond_atom_site_label_2
_geom_bond_distance
_geom_bond_site_symmetry_2
_ccdc_geom_bond_type
Ti1     Er4    10.054   .     S
Ti1     Er3    10.054   1_655     S
Ti1     Ti2    8.988   .     S
Ti1     Ti2    8.988   1_655     S
Ti2     Er4    10.054   .     S
Ti2     Er3    10.054   .     S
Ti2     Ti1    8.988   1_455     S
Er3     Ti1    10.054   1_455     S
Er3     V10    10.452   1_455     S
Er3     V10    10.452   .     S
Er4     V9    10.452   1_665     S
Er4     V9    10.452   1_565     S
Ti5     Er7    10.054   .     S
Ti5     Er8    10.054   1_655     S
Ti5     Ti6    8.988   .     S
Ti5     Ti6    8.988   1_655     S
Ti6     Er7    10.054   .     S
Ti6     Er8    10.054   .     S
Ti6     Ti5    8.988   1_455     S
Er7     V9    10.452   1_655     S
Er7     V9    10.452   .     S
Er8     Ti5    10.054   1_455     S
Er8     V10    10.452   .     S
Er8     V10    10.452   1_455     S
V9     Er7    10.452   1_455     S
V9     Er4    10.452   1_445     S
V9     Er4    10.452   1_545     S
V10     Er8    10.452   1_655     S
V10     Er3    10.452   1_655     S
