data_fwd
_audit_creation_date              2020-02-16
_audit_creation_method            'Pymatgen'
_symmetry_space_group_name_H-M    'P1'
_symmetry_Int_Tables_number       1
loop_
_symmetry_equiv_pos_as_xyz
  x,y,z
_cell_length_a                    40.0428
_cell_length_b                    40.0428
_cell_length_c                    20.0
_cell_angle_alpha                 90.0
_cell_angle_beta                 90.0
_cell_angle_gamma                 120.0
loop_
_atom_site_label
_atom_site_type_symbol
_atom_site_fract_x
_atom_site_fract_y
_atom_site_fract_z
V1     V     0.7497   0.7503   0.0
Er2     Er     0.5   0.5   0.0
Ti3     Ti     0.5003   0.2506   0.0
Ti4     Ti     0.4997   0.7494   0.0
V5     V     0.2503   0.2497   0.0
Ti6     Ti     0.7503   0.4997   0.0
Ti7     Ti     0.2497   0.5003   0.0
Er8     Er     0.0   0.5   0.0
V9     V     0.0006   0.2503   0.0
V10     V     0.9994   0.7497   0.0
V11     V     0.2497   0.9994   0.0
Er12     Er     0.5   0.0   0.0
Ti13     Ti     0.7494   0.2497   0.0
Ti14     Ti     0.2506   0.7503   0.0
V15     V     0.7503   0.0006   0.0
loop_
_geom_bond_atom_site_label_1
_geom_bond_atom_site_label_2
_geom_bond_distance
_geom_bond_site_symmetry_2
_ccdc_geom_bond_type
V1     Er2    10.011   .     S
V1     Ti4    9.993   .     S
V1     V10    10.011   .     S
V1     V15    10.011   1_565     S
Er2     Ti3    9.993   .     S
Er2     Ti4    9.993   .     S
Er2     V5    10.011   .     S
Ti3     V5    9.993   .     S
Ti3     Ti6    9.993   .     S
Ti3     Ti13    9.993   .     S
Ti4     Ti14    9.993   .     S
Ti4     Ti7    9.993   .     S
V5     V9    10.011   .     S
V5     V11    10.011   1_545     S
Ti6     V10    9.993   .     S
Ti6     Er8    9.993   1_655     S
Ti6     Ti13    9.993   .     S
Ti7     V9    9.993   .     S
Ti7     Er8    9.993   .     S
Ti7     Ti14    9.993   .     S
Er8     V10    10.011   1_455     S
Er8     V9    10.011   .     S
Er8     Ti6    9.993   1_455     S
V9     V15    10.011   1_455     S
V10     Er8    10.011   1_655     S
V10     V11    10.011   1_655     S
V11     Er12    10.011   1_565     S
V11     Ti14    9.993   .     S
V11     V10    10.011   1_455     S
V11     V5    10.011   1_565     S
Er12     V11    10.011   1_545     S
Er12     V15    10.011   .     S
Er12     Ti14    9.993   1_545     S
Er12     Ti13    9.993   .     S
Ti13     V15    9.993   .     S
Ti14     Er12    9.993   1_565     S
V15     V1    10.011   1_545     S
V15     V9    10.011   1_655     S
