data_hna
_audit_creation_date              2020-02-16
_audit_creation_method            'Pymatgen'
_symmetry_space_group_name_H-M    'P1'
_symmetry_Int_Tables_number       1
loop_
_symmetry_equiv_pos_as_xyz
  x,y,z
_cell_length_a                    40.4729
_cell_length_b                    40.4729
_cell_length_c                    20.0
_cell_angle_alpha                 90.0
_cell_angle_beta                 90.0
_cell_angle_gamma                 90.0
loop_
_atom_site_label
_atom_site_type_symbol
_atom_site_fract_x
_atom_site_fract_y
_atom_site_fract_z
V1     V     0.4126   0.9126   0.0
V2     V     0.9126   0.5874   0.0
Er3     Er     0.171   0.9642   0.0
Er4     Er     0.9642   0.829   0.0
Er5     Er     0.829   0.0358   0.0
Er6     Er     0.0358   0.171   0.0
V7     V     0.5874   0.0874   0.0
V8     V     0.0874   0.4126   0.0
Er9     Er     0.671   0.5359   0.0
Er10     Er     0.4642   0.671   0.0
Er11     Er     0.5359   0.329   0.0
Er12     Er     0.329   0.4642   0.0
loop_
_geom_bond_atom_site_label_1
_geom_bond_atom_site_label_2
_geom_bond_distance
_geom_bond_site_symmetry_2
_ccdc_geom_bond_type
V1     Er3    10.0   .     S
V1     Er10    10.0   .     S
V1     V7    10.001   1_565     S
V2     Er9    10.0   .     S
V2     Er4    10.0   .     S
V2     V8    10.001   1_655     S
Er3     Er4    10.0   1_455     S
Er3     Er6    10.0   1_565     S
Er4     Er3    10.0   1_655     S
Er4     Er5    10.0   1_565     S
Er5     Er4    10.0   1_545     S
Er5     Er6    10.0   1_655     S
Er5     V7    10.0   .     S
Er6     Er5    10.0   1_455     S
Er6     Er3    10.0   1_545     S
Er6     V8    10.0   .     S
V7     Er11    10.0   .     S
V7     V1    10.001   1_545     S
V8     Er12    10.0   .     S
V8     V2    10.001   1_455     S
Er9     Er10    10.0   .     S
Er9     Er11    10.0   .     S
Er10     Er12    10.0   .     S
Er11     Er12    10.0   .     S
