data_hne
_audit_creation_date              2020-02-16
_audit_creation_method            'Pymatgen'
_symmetry_space_group_name_H-M    'P1'
_symmetry_Int_Tables_number       1
loop_
_symmetry_equiv_pos_as_xyz
  x,y,z
_cell_length_a                    52.0873
_cell_length_b                    40.8444
_cell_length_c                    20.0
_cell_angle_alpha                 90.0
_cell_angle_beta                 90.0
_cell_angle_gamma                 90.0
loop_
_atom_site_label
_atom_site_type_symbol
_atom_site_fract_x
_atom_site_fract_y
_atom_site_fract_z
Er1     Er     0.404   0.0   0.0
Er2     Er     0.596   0.0   0.0
Er3     Er     0.904   0.5   0.0
Er4     Er     0.096   0.5   0.0
Ti5     Ti     0.3451   0.233   0.0
Ti6     Ti     0.1549   0.267   0.0
V7     V     0.5   0.3776   0.0
Ti8     Ti     0.8451   0.267   0.0
Ti9     Ti     0.6549   0.233   0.0
V10     V     0.0   0.1224   0.0
Ti11     Ti     0.3451   0.767   0.0
Ti12     Ti     0.1549   0.733   0.0
V13     V     0.0   0.8776   0.0
Ti14     Ti     0.8451   0.733   0.0
Ti15     Ti     0.6549   0.767   0.0
V16     V     0.5   0.6224   0.0
loop_
_geom_bond_atom_site_label_1
_geom_bond_atom_site_label_2
_geom_bond_distance
_geom_bond_site_symmetry_2
_ccdc_geom_bond_type
Er1     Ti5    10.0   .     S
Er1     Ti11    10.0   1_545     S
Er1     Er2    10.0   .     S
Er2     Ti9    10.0   .     S
Er2     Ti15    10.0   1_545     S
Er3     Ti8    10.0   .     S
Er3     Ti14    10.0   .     S
Er3     Er4    10.0   1_655     S
Er4     Ti6    10.0   .     S
Er4     Ti12    10.0   .     S
Er4     Er3    10.0   1_455     S
Ti5     Ti6    10.0   .     S
Ti5     V7    10.0   .     S
Ti6     V10    10.0   .     S
V7     Ti9    10.0   .     S
V7     V16    10.0   .     S
Ti8     Ti9    10.0   .     S
Ti8     V10    10.0   1_655     S
V10     Ti8    10.0   1_455     S
V10     V13    10.0   1_545     S
Ti11     Er1    10.0   1_565     S
Ti11     Ti12    10.0   .     S
Ti11     V16    10.0   .     S
Ti12     V13    10.0   .     S
V13     Ti14    10.0   1_455     S
V13     V10    10.0   1_565     S
Ti14     V13    10.0   1_655     S
Ti14     Ti15    10.0   .     S
Ti15     Er2    10.0   1_565     S
Ti15     V16    10.0   .     S
