data_hnf
_audit_creation_date              2020-02-16
_audit_creation_method            'Pymatgen'
_symmetry_space_group_name_H-M    'P1'
_symmetry_Int_Tables_number       1
loop_
_symmetry_equiv_pos_as_xyz
  x,y,z
_cell_length_a                    42.4054
_cell_length_b                    42.4054
_cell_length_c                    20.0
_cell_angle_alpha                 90.0
_cell_angle_beta                 90.0
_cell_angle_gamma                 120.0
loop_
_atom_site_label
_atom_site_type_symbol
_atom_site_fract_x
_atom_site_fract_y
_atom_site_fract_z
V1     V     0.1362   0.7307   0.0
Ce2     Ce     0.3333   0.6667   0.0
V3     V     0.5946   0.8638   0.0
Ce4     Ce     0.6667   0.3333   0.0
V5     V     0.7307   0.1362   0.0
V6     V     0.8638   0.5946   0.0
V7     V     0.2693   0.4054   0.0
V8     V     0.4054   0.2693   0.0
Er9     Er     0.7642   0.7642   0.0
Er10     Er     0.0   0.2358   0.0
Ti11     Ti     0.0   0.0   0.0
Er12     Er     0.2358   0.0   0.0
loop_
_geom_bond_atom_site_label_1
_geom_bond_atom_site_label_2
_geom_bond_distance
_geom_bond_site_symmetry_2
_ccdc_geom_bond_type
V1     Ce2    10.0   .     S
V1     V6    10.0   1_455     S
V1     Er12    10.0   1_565     S
Ce2     V3    10.0   .     S
Ce2     V7    10.0   .     S
V3     V5    10.0   1_565     S
V3     Er9    10.0   .     S
Ce4     V6    10.0   .     S
Ce4     V5    10.0   .     S
Ce4     V8    10.0   .     S
V5     V3    10.0   1_545     S
V5     Er10    10.0   1_655     S
V6     V1    10.0   1_655     S
V6     Er9    10.0   .     S
V7     V8    10.0   .     S
V7     Er10    10.0   .     S
V8     Er12    10.0   .     S
Er9     Ti11    10.0   1_665     S
Er10     V5    10.0   1_455     S
Er10     Ti11    10.0   .     S
Ti11     Er12    10.0   .     S
Ti11     Er9    10.0   1_445     S
Er12     V1    10.0   1_545     S
