data_htba
_audit_creation_date              2020-02-16
_audit_creation_method            'Pymatgen'
_symmetry_space_group_name_H-M    'P1'
_symmetry_Int_Tables_number       1
loop_
_symmetry_equiv_pos_as_xyz
  x,y,z
_cell_length_a                    64.641
_cell_length_b                    64.641
_cell_length_c                    20.0
_cell_angle_alpha                 90.0
_cell_angle_beta                 90.0
_cell_angle_gamma                 120.0
loop_
_atom_site_label
_atom_site_type_symbol
_atom_site_fract_x
_atom_site_fract_y
_atom_site_fract_z
Er1     Er     0.0893   0.756   0.0
Er2     Er     0.244   0.9107   0.0
Er3     Er     0.756   0.6667   0.0
Er4     Er     0.9107   0.6667   0.0
Er5     Er     0.9107   0.244   0.0
Er6     Er     0.756   0.0893   0.0
Er7     Er     0.3333   0.244   0.0
Er8     Er     0.3333   0.0893   0.0
V9     V     0.8214   0.3333   0.0
V10     V     0.8214   0.488   0.0
V11     V     0.6667   0.1786   0.0
V12     V     0.512   0.3333   0.0
V13     V     0.6667   0.488   0.0
V14     V     0.512   0.1786   0.0
Er15     Er     0.6667   0.9107   0.0
Er16     Er     0.6667   0.756   0.0
V17     V     0.488   0.8214   0.0
V18     V     0.3333   0.8214   0.0
V19     V     0.1786   0.6667   0.0
V20     V     0.1786   0.512   0.0
V21     V     0.488   0.6667   0.0
V22     V     0.3333   0.512   0.0
Er23     Er     0.0893   0.3333   0.0
Er24     Er     0.244   0.3333   0.0
loop_
_geom_bond_atom_site_label_1
_geom_bond_atom_site_label_2
_geom_bond_distance
_geom_bond_site_symmetry_2
_ccdc_geom_bond_type
Er1     Er2    9.999   .     S
Er1     Er4    10.0   1_455     S
Er1     V19    10.0   .     S
Er2     V18    10.0   .     S
Er2     Er8    10.0   1_565     S
Er3     Er4    9.999   .     S
Er3     Er16    10.0   .     S
Er3     V13    10.0   .     S
Er4     Er1    10.0   1_655     S
Er4     V10    10.0   .     S
Er5     Er6    9.999   .     S
Er5     Er23    10.0   1_655     S
Er5     V9    10.0   .     S
Er6     V11    10.0   .     S
Er6     Er15    10.0   1_545     S
Er7     Er8    9.999   .     S
Er7     V12    10.0   .     S
Er7     Er24    10.0   .     S
Er8     V14    10.0   .     S
Er8     Er2    10.0   1_545     S
V9     V11    10.001   .     S
V9     V10    9.999   .     S
V10     V13    10.001   .     S
V11     V14    9.999   .     S
V12     V13    9.999   .     S
V12     V14    10.001   .     S
Er15     Er16    9.999   .     S
Er15     V17    10.0   .     S
Er15     Er6    10.0   1_565     S
Er16     V21    10.0   .     S
V17     V18    9.999   .     S
V17     V21    10.001   .     S
V18     V19    10.001   .     S
V19     V20    9.999   .     S
V20     V22    10.001   .     S
V20     Er23    10.0   .     S
V21     V22    9.999   .     S
V22     Er24    10.0   .     S
Er23     Er5    10.0   1_455     S
Er23     Er24    9.999   .     S
