data_kgda
_audit_creation_date              2020-02-16
_audit_creation_method            'Pymatgen'
_symmetry_space_group_name_H-M    'P1'
_symmetry_Int_Tables_number       1
loop_
_symmetry_equiv_pos_as_xyz
  x,y,z
_cell_length_a                    44.641
_cell_length_b                    44.641
_cell_length_c                    20.0
_cell_angle_alpha                 90.0
_cell_angle_beta                 90.0
_cell_angle_gamma                 120.0
loop_
_atom_site_label
_atom_site_type_symbol
_atom_site_fract_x
_atom_site_fract_y
_atom_site_fract_z
Er1     Er     0.2587   0.7413   0.0
Er2     Er     0.2587   0.5173   0.0
Er3     Er     0.4827   0.7413   0.0
Er4     Er     0.5173   0.2587   0.0
Er5     Er     0.7413   0.2587   0.0
Er6     Er     0.7413   0.4827   0.0
V7     V     0.8707   0.7413   0.0
V8     V     0.1293   0.8707   0.0
V9     V     0.7413   0.8707   0.0
V10     V     0.8707   0.1293   0.0
V11     V     0.2587   0.1293   0.0
V12     V     0.1293   0.2587   0.0
loop_
_geom_bond_atom_site_label_1
_geom_bond_atom_site_label_2
_geom_bond_distance
_geom_bond_site_symmetry_2
_ccdc_geom_bond_type
Er1     Er3    10.0   .     S
Er1     Er2    10.0   .     S
Er1     V8    10.0   .     S
Er2     Er3    10.0   .     S
Er2     V12    10.0   .     S
Er3     V9    10.0   .     S
Er4     Er5    10.0   .     S
Er4     Er6    10.0   .     S
Er4     V11    10.0   .     S
Er5     Er6    10.0   .     S
Er5     V10    10.0   .     S
Er6     V7    10.0   .     S
V7     V8    10.0   1_655     S
V7     V9    10.0   .     S
V8     V7    10.0   1_455     S
V8     V11    10.0   1_565     S
V9     V10    10.0   1_565     S
V10     V9    10.0   1_545     S
V10     V12    10.0   1_655     S
V11     V8    10.0   1_545     S
V11     V12    10.0   .     S
V12     V10    10.0   1_455     S
