data_kra
_audit_creation_date              2020-02-16
_audit_creation_method            'Pymatgen'
_symmetry_space_group_name_H-M    'P1'
_symmetry_Int_Tables_number       1
loop_
_symmetry_equiv_pos_as_xyz
  x,y,z
_cell_length_a                    36.0555
_cell_length_b                    36.0555
_cell_length_c                    20.0
_cell_angle_alpha                 90.0
_cell_angle_beta                 90.0
_cell_angle_gamma                 120.0
loop_
_atom_site_label
_atom_site_type_symbol
_atom_site_fract_x
_atom_site_fract_y
_atom_site_fract_z
V1     V     0.3846   0.8462   0.0
Er2     Er     0.0769   0.7692   0.0
Er3     Er     0.7692   0.6923   0.0
V4     V     0.8462   0.4615   0.0
V5     V     0.5385   0.3846   0.0
Er6     Er     0.3077   0.0769   0.0
Er7     Er     0.9231   0.2308   0.0
V8     V     0.6154   0.1538   0.0
Er9     Er     0.2308   0.3077   0.0
V10     V     0.1538   0.5385   0.0
Er11     Er     0.6923   0.9231   0.0
V12     V     0.4615   0.6154   0.0
loop_
_geom_bond_atom_site_label_1
_geom_bond_atom_site_label_2
_geom_bond_distance
_geom_bond_site_symmetry_2
_ccdc_geom_bond_type
V1     Er2    10.0   .     S
V1     V10    10.0   .     S
V1     Er6    10.0   1_565     S
V1     V12    10.0   .     S
V1     Er11    10.0   .     S
V1     V8    10.0   1_565     S
Er2     V10    10.0   .     S
Er2     Er6    10.0   1_565     S
Er2     Er3    10.0   1_455     S
Er2     V4    10.0   1_455     S
Er3     Er2    10.0   1_655     S
Er3     V5    10.0   .     S
Er3     V4    10.0   .     S
Er3     Er11    10.0   .     S
Er3     V12    10.0   .     S
V4     Er2    10.0   1_655     S
V4     V5    10.0   .     S
V4     V8    10.0   .     S
V4     Er7    10.0   .     S
V4     V10    10.0   1_655     S
V5     V8    10.0   .     S
V5     Er6    10.0   .     S
V5     Er9    10.0   .     S
V5     V12    10.0   .     S
Er6     Er2    10.0   1_545     S
Er6     V1    10.0   1_545     S
Er6     V8    10.0   .     S
Er6     Er9    10.0   .     S
Er7     Er11    10.0   1_545     S
Er7     V8    10.0   .     S
Er7     Er9    10.0   1_655     S
Er7     V10    10.0   1_655     S
V8     Er11    10.0   1_545     S
V8     V1    10.0   1_545     S
Er9     Er7    10.0   1_455     S
Er9     V12    10.0   .     S
Er9     V10    10.0   .     S
V10     Er7    10.0   1_455     S
V10     V12    10.0   .     S
V10     V4    10.0   1_455     S
Er11     Er7    10.0   1_565     S
Er11     V8    10.0   1_565     S
Er11     V12    10.0   .     S
