data_krh
_audit_creation_date              2020-02-16
_audit_creation_method            'Pymatgen'
_symmetry_space_group_name_H-M    'P1'
_symmetry_Int_Tables_number       1
loop_
_symmetry_equiv_pos_as_xyz
  x,y,z
_cell_length_a                    49.9999
_cell_length_b                    17.3206
_cell_length_c                    20.0
_cell_angle_alpha                 90.0
_cell_angle_beta                 90.0
_cell_angle_gamma                 90.0
loop_
_atom_site_label
_atom_site_type_symbol
_atom_site_fract_x
_atom_site_fract_y
_atom_site_fract_z
Er1     Er     0.6   0.5   0.0
Er2     Er     0.4   0.5   0.0
V3     V     0.2   0.5   0.0
V4     V     0.8   0.5   0.0
Er5     Er     0.9   0.0   0.0
V6     V     0.3   0.0   0.0
Er7     Er     0.1   0.0   0.0
V8     V     0.7   0.0   0.0
loop_
_geom_bond_atom_site_label_1
_geom_bond_atom_site_label_2
_geom_bond_distance
_geom_bond_site_symmetry_2
_ccdc_geom_bond_type
Er1     V8    10.0   .     S
Er1     V4    10.0   .     S
Er1     Er2    10.0   .     S
Er1     V8    10.0   1_565     S
Er2     V6    10.0   1_565     S
Er2     V6    10.0   .     S
Er2     V3    10.0   .     S
V3     V6    10.0   1_565     S
V3     Er7    10.0   1_565     S
V3     V6    10.0   .     S
V3     Er7    10.0   .     S
V4     Er5    10.0   .     S
V4     V8    10.0   .     S
V4     Er5    10.0   1_565     S
V4     V8    10.0   1_565     S
Er5     Er7    10.0   1_655     S
Er5     V8    10.0   .     S
Er5     V4    10.0   1_545     S
V6     Er2    10.0   1_545     S
V6     V3    10.0   1_545     S
V6     Er7    10.0   .     S
Er7     V3    10.0   1_545     S
Er7     Er5    10.0   1_455     S
V8     V4    10.0   1_545     S
V8     Er1    10.0   1_545     S
