data_krj
_audit_creation_date              2020-02-16
_audit_creation_method            'Pymatgen'
_symmetry_space_group_name_H-M    'P1'
_symmetry_Int_Tables_number       1
loop_
_symmetry_equiv_pos_as_xyz
  x,y,z
_cell_length_a                    38.5459
_cell_length_b                    19.3626
_cell_length_c                    20.0
_cell_angle_alpha                 90.0
_cell_angle_beta                 90.0
_cell_angle_gamma                 90.0
loop_
_atom_site_label
_atom_site_type_symbol
_atom_site_fract_x
_atom_site_fract_y
_atom_site_fract_z
Er1     Er     0.2825   0.888   0.0
V2     V     0.4675   0.25   0.0
Er3     Er     0.7175   0.112   0.0
V4     V     0.5325   0.75   0.0
Er5     Er     0.7825   0.612   0.0
V6     V     0.9675   0.25   0.0
Er7     Er     0.2175   0.388   0.0
V8     V     0.0325   0.75   0.0
loop_
_geom_bond_atom_site_label_1
_geom_bond_atom_site_label_2
_geom_bond_distance
_geom_bond_site_symmetry_2
_ccdc_geom_bond_type
Er1     Er7    10.0   1_565     S
Er1     V2    10.0   1_565     S
Er1     V4    10.0   .     S
Er1     V8    10.0   .     S
Er1     Er7    10.0   .     S
V2     Er7    10.0   .     S
V2     Er1    10.0   1_545     S
V2     V4    10.0   1_545     S
V2     Er3    10.0   .     S
V2     V4    10.0   .     S
Er3     Er5    10.0   1_545     S
Er3     V4    10.0   1_545     S
Er3     V6    10.0   .     S
Er3     Er5    10.0   .     S
V4     V2    10.0   1_565     S
V4     Er5    10.0   .     S
V4     Er3    10.0   1_565     S
Er5     Er3    10.0   1_565     S
Er5     V6    10.0   .     S
Er5     V8    10.0   1_655     S
V6     V8    10.0   1_655     S
V6     Er7    10.0   1_655     S
V6     V8    10.0   1_645     S
Er7     Er1    10.0   1_545     S
Er7     V6    10.0   1_455     S
Er7     V8    10.0   .     S
V8     Er5    10.0   1_455     S
V8     V6    10.0   1_455     S
V8     V6    10.0   1_465     S
