data_krjd
_audit_creation_date              2020-02-16
_audit_creation_method            'Pymatgen'
_symmetry_space_group_name_H-M    'P1'
_symmetry_Int_Tables_number       1
loop_
_symmetry_equiv_pos_as_xyz
  x,y,z
_cell_length_a                    26.7132
_cell_length_b                    47.5827
_cell_length_c                    20.0
_cell_angle_alpha                 90.0
_cell_angle_beta                 90.0
_cell_angle_gamma                 90.0
loop_
_atom_site_label
_atom_site_type_symbol
_atom_site_fract_x
_atom_site_fract_y
_atom_site_fract_z
Er1     Er     0.2121   0.2879   0.0
V2     V     0.0326   0.1035   0.0
Er3     Er     0.7879   0.7121   0.0
V4     V     0.9674   0.8965   0.0
Ti5     Ti     0.4063   0.091   0.0
Ti6     Ti     0.5937   0.909   0.0
Er7     Er     0.2879   0.7879   0.0
V8     V     0.4674   0.6035   0.0
Er9     Er     0.7121   0.2121   0.0
V10     V     0.5326   0.3965   0.0
Ti11     Ti     0.9063   0.4091   0.0
Ti12     Ti     0.0937   0.591   0.0
loop_
_geom_bond_atom_site_label_1
_geom_bond_atom_site_label_2
_geom_bond_distance
_geom_bond_site_symmetry_2
_ccdc_geom_bond_type
Er1     V2    10.0   .     S
Er1     V10    10.0   .     S
Er1     Ti11    10.0   1_455     S
V2     Er9    10.0   1_455     S
V2     Ti5    10.0   .     S
V2     V4    10.0   1_445     S
Er3     V4    10.0   .     S
Er3     V8    10.0   .     S
Er3     Ti12    10.0   1_655     S
V4     Er7    10.0   1_655     S
V4     Ti6    10.0   .     S
V4     V2    10.0   1_665     S
Ti5     Ti6    10.0   1_545     S
Ti5     Er9    10.0   .     S
Ti6     Ti5    10.0   1_565     S
Ti6     Er7    10.0   .     S
Er7     V4    10.0   1_455     S
Er7     V8    10.0   .     S
V8     Ti12    10.0   .     S
V8     V10    10.0   .     S
Er9     V2    10.0   1_655     S
Er9     V10    10.0   .     S
V10     Ti11    10.0   .     S
Ti11     Ti12    10.0   1_655     S
Ti11     Er1    10.0   1_655     S
Ti12     Ti11    10.0   1_455     S
Ti12     Er3    10.0   1_455     S
