data_krk
_audit_creation_date              2020-02-16
_audit_creation_method            'Pymatgen'
_symmetry_space_group_name_H-M    'P1'
_symmetry_Int_Tables_number       1
loop_
_symmetry_equiv_pos_as_xyz
  x,y,z
_cell_length_a                    37.3206
_cell_length_b                    37.3206
_cell_length_c                    20.0
_cell_angle_alpha                 90.0
_cell_angle_beta                 90.0
_cell_angle_gamma                 120.0
loop_
_atom_site_label
_atom_site_type_symbol
_atom_site_fract_x
_atom_site_fract_y
_atom_site_fract_z
V1     V     0.5774   0.1547   0.0
V2     V     0.8453   0.4226   0.0
V3     V     0.5774   0.4226   0.0
V4     V     0.4226   0.8453   0.0
V5     V     0.4226   0.5774   0.0
V6     V     0.1547   0.5774   0.0
Er7     Er     0.8453   0.6906   0.0
Er8     Er     0.6906   0.8453   0.0
Er9     Er     0.1547   0.8453   0.0
Er10     Er     0.8453   0.1547   0.0
Er11     Er     0.1547   0.3094   0.0
Er12     Er     0.3094   0.1547   0.0
loop_
_geom_bond_atom_site_label_1
_geom_bond_atom_site_label_2
_geom_bond_distance
_geom_bond_site_symmetry_2
_ccdc_geom_bond_type
V1     V3    10.0   .     S
V1     Er10    10.0   .     S
V1     V2    10.0   .     S
V1     Er12    10.0   .     S
V1     V4    10.0   1_545     S
V2     V3    10.0   .     S
V2     Er10    10.0   .     S
V2     Er7    10.0   .     S
V2     V6    10.0   1_655     S
V3     Er7    10.0   .     S
V3     Er12    10.0   .     S
V3     V5    10.0   .     S
V4     V5    10.0   .     S
V4     V6    10.0   .     S
V4     Er9    10.0   .     S
V4     Er8    10.0   .     S
V4     V1    10.0   1_565     S
V5     V6    10.0   .     S
V5     Er11    10.0   .     S
V5     Er8    10.0   .     S
V6     Er9    10.0   .     S
V6     Er11    10.0   .     S
V6     V2    10.0   1_455     S
Er7     Er8    10.0   .     S
Er7     Er9    10.0   1_655     S
Er8     Er10    10.0   1_565     S
Er9     Er7    10.0   1_455     S
Er9     Er12    10.0   1_565     S
Er10     Er11    10.0   1_655     S
Er10     Er8    10.0   1_545     S
Er11     Er10    10.0   1_455     S
Er11     Er12    10.0   .     S
Er12     Er9    10.0   1_545     S
