data_krl
_audit_creation_date              2020-02-16
_audit_creation_method            'Pymatgen'
_symmetry_space_group_name_H-M    'P1'
_symmetry_Int_Tables_number       1
loop_
_symmetry_equiv_pos_as_xyz
  x,y,z
_cell_length_a                    20.0
_cell_length_b                    57.3205
_cell_length_c                    20.0
_cell_angle_alpha                 90.0
_cell_angle_beta                 90.0
_cell_angle_gamma                 90.0
loop_
_atom_site_label
_atom_site_type_symbol
_atom_site_fract_x
_atom_site_fract_y
_atom_site_fract_z
Er1     Er     0.25   0.5   0.0
Er2     Er     0.75   0.5   0.0
V3     V     0.0   0.8255   0.0
V4     V     0.5   0.8255   0.0
V5     V     0.25   0.6745   0.0
V6     V     0.75   0.6745   0.0
Er7     Er     0.0   0.0   0.0
Er8     Er     0.5   0.0   0.0
V9     V     0.0   0.1745   0.0
V10     V     0.5   0.1745   0.0
V11     V     0.25   0.3255   0.0
V12     V     0.75   0.3255   0.0
loop_
_geom_bond_atom_site_label_1
_geom_bond_atom_site_label_2
_geom_bond_distance
_geom_bond_site_symmetry_2
_ccdc_geom_bond_type
Er1     Er2    10.0   1_455     S
Er1     Er2    10.0   .     S
Er1     V11    10.0   .     S
Er1     V5    10.0   .     S
Er2     Er1    10.0   1_655     S
Er2     V12    10.0   .     S
Er2     V6    10.0   .     S
V3     V6    10.0   1_455     S
V3     V5    10.0   .     S
V3     V4    10.0   .     S
V3     V4    10.0   1_455     S
V3     Er7    10.0   1_565     S
V4     V5    10.0   .     S
V4     V6    10.0   .     S
V4     V3    10.0   1_655     S
V4     Er8    10.0   1_565     S
V5     V6    10.0   1_455     S
V5     V6    10.0   .     S
V6     V3    10.0   1_655     S
V6     V5    10.0   1_655     S
Er7     Er8    10.0   .     S
Er7     Er8    10.0   1_455     S
Er7     V9    10.0   .     S
Er7     V3    10.0   1_545     S
Er8     Er7    10.0   1_655     S
Er8     V10    10.0   .     S
Er8     V4    10.0   1_545     S
V9     V11    10.0   .     S
V9     V12    10.0   1_455     S
V9     V10    10.0   .     S
V9     V10    10.0   1_455     S
V10     V12    10.0   .     S
V10     V11    10.0   .     S
V10     V9    10.0   1_655     S
V11     V12    10.0   1_455     S
V11     V12    10.0   .     S
V12     V9    10.0   1_655     S
V12     V11    10.0   1_655     S
