data_krs
_audit_creation_date              2020-02-16
_audit_creation_method            'Pymatgen'
_symmetry_space_group_name_H-M    'P1'
_symmetry_Int_Tables_number       1
loop_
_symmetry_equiv_pos_as_xyz
  x,y,z
_cell_length_a                    20.0001
_cell_length_b                    54.6408
_cell_length_c                    20.0
_cell_angle_alpha                 90.0
_cell_angle_beta                 90.0
_cell_angle_gamma                 90.0
loop_
_atom_site_label
_atom_site_type_symbol
_atom_site_fract_x
_atom_site_fract_y
_atom_site_fract_z
Er1     Er     0.25   0.6585   0.0
Er2     Er     0.75   0.6585   0.0
Er3     Er     0.75   0.3415   0.0
Er4     Er     0.25   0.3415   0.0
V5     V     0.5   0.5   0.0
Er6     Er     0.75   0.8415   0.0
Er7     Er     0.25   0.8415   0.0
Er8     Er     0.25   0.1585   0.0
Er9     Er     0.75   0.1585   0.0
V10     V     0.0   0.0   0.0
loop_
_geom_bond_atom_site_label_1
_geom_bond_atom_site_label_2
_geom_bond_distance
_geom_bond_site_symmetry_2
_ccdc_geom_bond_type
Er1     V5    10.0   .     S
Er1     Er2    10.0   .     S
Er1     Er2    10.0   1_455     S
Er1     Er7    10.0   .     S
Er2     V5    10.0   .     S
Er2     Er1    10.0   1_655     S
Er2     Er6    10.0   .     S
Er3     V5    10.0   .     S
Er3     Er4    10.0   .     S
Er3     Er4    10.0   1_655     S
Er3     Er9    10.0   .     S
Er4     V5    10.0   .     S
Er4     Er3    10.0   1_455     S
Er4     Er8    10.0   .     S
Er6     V10    10.0   1_665     S
Er6     Er7    10.0   1_655     S
Er6     Er7    10.0   .     S
Er7     Er6    10.0   1_455     S
Er7     V10    10.0   1_565     S
Er8     V10    10.0   .     S
Er8     Er9    10.0   1_455     S
Er8     Er9    10.0   .     S
Er9     Er8    10.0   1_655     S
Er9     V10    10.0   1_655     S
V10     Er6    10.0   1_445     S
V10     Er7    10.0   1_545     S
V10     Er9    10.0   1_455     S
