data_kru
_audit_creation_date              2020-02-16
_audit_creation_method            'Pymatgen'
_symmetry_space_group_name_H-M    'P1'
_symmetry_Int_Tables_number       1
loop_
_symmetry_equiv_pos_as_xyz
  x,y,z
_cell_length_a                    19.3518
_cell_length_b                    57.8532
_cell_length_c                    20.0
_cell_angle_alpha                 90.0
_cell_angle_beta                 90.0
_cell_angle_gamma                 90.0
loop_
_atom_site_label
_atom_site_type_symbol
_atom_site_fract_x
_atom_site_fract_y
_atom_site_fract_z
Er1     Er     0.1815   0.9385   0.0
Er2     Er     0.6815   0.5615   0.0
Er3     Er     0.3185   0.4385   0.0
V4     V     0.8185   0.3948   0.0
Ti5     Ti     0.9555   0.2282   0.0
Ti6     Ti     0.0445   0.7718   0.0
V7     V     0.1815   0.6052   0.0
Er8     Er     0.8185   0.0615   0.0
Ti9     Ti     0.5445   0.7282   0.0
V10     V     0.6815   0.8948   0.0
V11     V     0.3185   0.1052   0.0
Ti12     Ti     0.4555   0.2718   0.0
loop_
_geom_bond_atom_site_label_1
_geom_bond_atom_site_label_2
_geom_bond_distance
_geom_bond_site_symmetry_2
_ccdc_geom_bond_type
Er1     Ti6    10.0   .     S
Er1     V11    10.0   1_565     S
Er1     Er8    10.0   1_465     S
Er1     V10    10.0   1_455     S
Er1     V10    10.0   .     S
Er2     Ti9    10.0   .     S
Er2     V4    10.0   .     S
Er2     Er3    10.0   .     S
Er2     V7    10.0   .     S
Er2     V7    10.0   1_655     S
Er3     Ti12    10.0   .     S
Er3     V7    10.0   .     S
Er3     V4    10.0   .     S
Er3     V4    10.0   1_455     S
V4     Ti5    10.0   .     S
V4     Ti12    10.0   .     S
V4     Er3    10.0   1_655     S
Ti5     V11    10.0   1_655     S
Ti5     Ti12    10.0   1_655     S
Ti5     Ti12    10.0   .     S
Ti5     Er8    10.0   .     S
Ti6     Ti9    10.0   .     S
Ti6     V10    10.0   1_455     S
Ti6     Ti9    10.0   1_455     S
Ti6     V7    10.0   .     S
V7     Ti9    10.0   .     S
V7     Er2    10.0   1_455     S
Er8     V10    10.0   1_545     S
Er8     Er1    10.0   1_645     S
Er8     V11    10.0   1_655     S
Er8     V11    10.0   .     S
Ti9     Ti6    10.0   1_655     S
Ti9     V10    10.0   .     S
V10     Ti6    10.0   1_655     S
V10     Er8    10.0   1_565     S
V10     Er1    10.0   1_655     S
V11     Ti5    10.0   1_455     S
V11     Er1    10.0   1_545     S
V11     Ti12    10.0   .     S
V11     Er8    10.0   1_455     S
Ti12     Ti5    10.0   1_455     S
