data_krud
_audit_creation_date              2020-02-16
_audit_creation_method            'Pymatgen'
_symmetry_space_group_name_H-M    'P1'
_symmetry_Int_Tables_number       1
loop_
_symmetry_equiv_pos_as_xyz
  x,y,z
_cell_length_a                    27.619
_cell_length_b                    66.6074
_cell_length_c                    20.0
_cell_angle_alpha                 90.0
_cell_angle_beta                 90.0
_cell_angle_gamma                 90.0
loop_
_atom_site_label
_atom_site_type_symbol
_atom_site_fract_x
_atom_site_fract_y
_atom_site_fract_z
V1     V     0.9489   0.3514   0.0
V2     V     0.0511   0.6486   0.0
V3     V     0.4489   0.1486   0.0
Ti4     Ti     0.2646   0.2779   0.0
Ce5     Ce     0.0871   0.1538   0.0
Ti6     Ti     0.7353   0.7221   0.0
Ce7     Ce     0.9129   0.8462   0.0
S8     S     0.1517   0.959   0.0
S9     S     0.8483   0.041   0.0
Er10     Er     0.5   0.0   0.0
Ti11     Ti     0.7647   0.2221   0.0
Ce12     Ce     0.5871   0.3462   0.0
Ti13     Ti     0.2354   0.7779   0.0
Ce14     Ce     0.4129   0.6538   0.0
S15     S     0.6517   0.541   0.0
S16     S     0.3483   0.459   0.0
Er17     Er     0.0   0.5   0.0
V18     V     0.5511   0.8514   0.0
loop_
_geom_bond_atom_site_label_1
_geom_bond_atom_site_label_2
_geom_bond_distance
_geom_bond_site_symmetry_2
_ccdc_geom_bond_type
V1     Er17    10.0   1_655     S
V1     Ti4    10.0   1_655     S
V1     Ce12    10.0   .     S
V1     Ti11    10.0   .     S
V2     Er17    10.0   .     S
V2     Ti6    10.0   1_455     S
V2     Ce14    10.0   .     S
V2     Ti13    10.0   .     S
V3     Er10    10.0   .     S
V3     Ti11    10.0   .     S
V3     Ce5    10.0   .     S
V3     Ti4    10.0   .     S
Ti4     V1    10.0   1_455     S
Ti4     Ce12    10.0   .     S
Ce5     S9    10.0   1_455     S
Ce5     Ti11    10.0   1_455     S
Ti6     V2    10.0   1_655     S
Ti6     V18    10.0   .     S
Ti6     Ce14    10.0   .     S
Ce7     V18    10.0   .     S
Ce7     S8    10.0   1_655     S
Ce7     Ti13    10.0   1_655     S
S8     Ce7    10.0   1_455     S
S8     Er10    10.0   1_565     S
S8     S9    10.0   1_465     S
S9     Ce5    10.0   1_655     S
S9     Er10    10.0   .     S
S9     S8    10.0   1_645     S
Er10     S8    10.0   1_545     S
Er10     V18    10.0   1_545     S
Ti11     Ce5    10.0   1_655     S
Ce12     S16    10.0   .     S
Ti13     Ce7    10.0   1_455     S
Ti13     V18    10.0   .     S
Ce14     S15    10.0   .     S
S15     Er17    10.0   1_655     S
S15     S16    10.0   .     S
S16     Er17    10.0   .     S
Er17     V1    10.0   1_455     S
Er17     S15    10.0   1_455     S
V18     Er10    10.0   1_565     S
