data_krv
_audit_creation_date              2020-02-16
_audit_creation_method            'Pymatgen'
_symmetry_space_group_name_H-M    'P1'
_symmetry_Int_Tables_number       1
loop_
_symmetry_equiv_pos_as_xyz
  x,y,z
_cell_length_a                    19.3201
_cell_length_b                    20.0
_cell_length_c                    36.3273
_cell_angle_alpha                 90.0
_cell_angle_beta                 127.0966
_cell_angle_gamma                 90.0
loop_
_atom_site_label
_atom_site_type_symbol
_atom_site_fract_x
_atom_site_fract_y
_atom_site_fract_z
Ti1     Ti     0.3006   0.0   0.5446
Ti2     Ti     0.6994   0.0   0.4554
Er3     Er     0.9433   0.0   0.7887
V4     V     0.5445   0.0   0.878
V5     V     0.4555   0.0   0.122
Er6     Er     0.0567   0.0   0.2113
loop_
_geom_bond_atom_site_label_1
_geom_bond_atom_site_label_2
_geom_bond_distance
_geom_bond_site_symmetry_2
_ccdc_geom_bond_type
Ti1     Er3    10.0   .     S
Ti1     V4    10.0   .     S
Ti1     Er6    10.0   .     S
Ti1     Ti2    10.0   .     S
Ti1     Ti2    10.0   1_455     S
Ti2     Er6    10.0   .     S
Ti2     V5    10.0   .     S
Ti2     Er3    10.0   .     S
Ti2     Ti1    10.0   1_655     S
Er3     V4    10.0   .     S
Er3     V4    10.0   1_655     S
Er3     V5    10.0   1_656     S
V4     Er3    10.0   1_455     S
V4     V5    10.0   1_556     S
V4     Er6    10.0   1_656     S
V5     Er6    10.0   .     S
V5     V4    10.0   1_554     S
V5     Er3    10.0   1_454     S
V5     Er6    10.0   1_655     S
Er6     V4    10.0   1_454     S
Er6     V5    10.0   1_455     S
