data_krx
_audit_creation_date              2020-02-16
_audit_creation_method            'Pymatgen'
_symmetry_space_group_name_H-M    'P1'
_symmetry_Int_Tables_number       1
loop_
_symmetry_equiv_pos_as_xyz
  x,y,z
_cell_length_a                    44.6412
_cell_length_b                    44.6412
_cell_length_c                    20.0
_cell_angle_alpha                 90.0
_cell_angle_beta                 90.0
_cell_angle_gamma                 120.0
loop_
_atom_site_label
_atom_site_type_symbol
_atom_site_fract_x
_atom_site_fract_y
_atom_site_fract_z
Ti1     Ti     0.612   0.0   0.0
V2     V     0.2587   0.1293   0.0
Er3     Er     0.2587   0.7413   0.0
Er4     Er     0.2587   0.5173   0.0
Er5     Er     0.4827   0.7413   0.0
V6     V     0.1293   0.8707   0.0
Ti7     Ti     0.0   0.612   0.0
V8     V     0.7413   0.8707   0.0
V9     V     0.8707   0.7413   0.0
Er10     Er     0.5173   0.2587   0.0
Er11     Er     0.7413   0.2587   0.0
Er12     Er     0.7413   0.4827   0.0
V13     V     0.8707   0.1293   0.0
V14     V     0.1293   0.2587   0.0
Ti15     Ti     0.0   0.388   0.0
Ti16     Ti     0.388   0.0   0.0
Ti17     Ti     0.388   0.388   0.0
Ti18     Ti     0.612   0.612   0.0
loop_
_geom_bond_atom_site_label_1
_geom_bond_atom_site_label_2
_geom_bond_distance
_geom_bond_site_symmetry_2
_ccdc_geom_bond_type
Ti1     Er5    10.0   1_545     S
Ti1     V8    10.0   1_545     S
Ti1     V13    10.0   .     S
Ti1     Er11    10.0   .     S
Ti1     Ti16    10.001   .     S
V2     Ti16    10.0   .     S
V2     Ti17    10.0   .     S
V2     Er10    10.0   .     S
V2     V14    10.0   .     S
V2     V6    10.0   1_545     S
Er3     Er5    10.0   .     S
Er3     Er4    10.0   .     S
Er3     V6    10.0   .     S
Er3     Ti16    10.0   1_565     S
Er3     Ti7    10.0   .     S
Er4     Er5    10.0   .     S
Er4     Ti17    10.0   .     S
Er4     V14    10.0   .     S
Er4     Ti15    10.0   .     S
Er5     Ti1    10.0   1_565     S
Er5     Ti18    10.0   .     S
Er5     V8    10.0   .     S
V6     Ti7    10.0   .     S
V6     Ti16    10.0   1_565     S
V6     V9    10.0   1_455     S
V6     V2    10.0   1_565     S
Ti7     Er12    10.0   1_455     S
Ti7     V9    10.0   1_455     S
Ti7     Ti15    10.001   .     S
V8     Ti18    10.0   .     S
V8     Ti1    10.0   1_565     S
V8     V9    10.0   .     S
V8     V13    10.0   1_565     S
V9     Ti7    10.0   1_655     S
V9     Ti18    10.0   .     S
V9     Er12    10.0   .     S
V9     V6    10.0   1_655     S
Er10     Er11    10.0   .     S
Er10     Er12    10.0   .     S
Er10     Ti17    10.0   .     S
Er10     Ti16    10.0   .     S
Er11     Er12    10.0   .     S
Er11     Ti15    10.0   1_655     S
Er11     V13    10.0   .     S
Er12     Ti7    10.0   1_655     S
Er12     Ti18    10.0   .     S
V13     Ti15    10.0   1_655     S
V13     V14    10.0   1_655     S
V13     V8    10.0   1_545     S
V14     V13    10.0   1_455     S
V14     Ti15    10.0   .     S
V14     Ti17    10.0   .     S
Ti15     V13    10.0   1_455     S
Ti15     Er11    10.0   1_455     S
Ti16     V6    10.0   1_545     S
Ti16     Er3    10.0   1_545     S
Ti17     Ti18    10.001   .     S
