data_krxd
_audit_creation_date              2020-02-16
_audit_creation_method            'Pymatgen'
_symmetry_space_group_name_H-M    'P1'
_symmetry_Int_Tables_number       1
loop_
_symmetry_equiv_pos_as_xyz
  x,y,z
_cell_length_a                    56.0149
_cell_length_b                    56.0149
_cell_length_c                    20.0
_cell_angle_alpha                 90.0
_cell_angle_beta                 90.0
_cell_angle_gamma                 120.0
loop_
_atom_site_label
_atom_site_type_symbol
_atom_site_fract_x
_atom_site_fract_y
_atom_site_fract_z
Ce1     Ce     0.6667   0.3333   0.0
Er2     Er     0.5556   0.1113   0.0
V3     V     0.3748   0.0987   0.0
V4     V     0.7239   0.0987   0.0
Er5     Er     0.4444   0.8887   0.0
V6     V     0.6252   0.9013   0.0
V7     V     0.2761   0.9013   0.0
Er8     Er     0.5556   0.4444   0.0
V9     V     0.3748   0.2761   0.0
V10     V     0.7239   0.6252   0.0
Er11     Er     0.4444   0.5556   0.0
V12     V     0.6252   0.7239   0.0
V13     V     0.2761   0.3748   0.0
S14     S     0.0   0.0   0.0
Ti15     Ti     0.0   0.8277   0.0
Ti16     Ti     0.0   0.1723   0.0
Ti17     Ti     0.8277   0.0   0.0
Ti18     Ti     0.1723   0.0   0.0
Ti19     Ti     0.1723   0.1723   0.0
Ti20     Ti     0.8277   0.8277   0.0
Er21     Er     0.1113   0.5556   0.0
V22     V     0.0987   0.3748   0.0
V23     V     0.0987   0.7239   0.0
Er24     Er     0.8887   0.4444   0.0
V25     V     0.9013   0.2761   0.0
V26     V     0.9013   0.6252   0.0
Ce27     Ce     0.3333   0.6667   0.0
loop_
_geom_bond_atom_site_label_1
_geom_bond_atom_site_label_2
_geom_bond_distance
_geom_bond_site_symmetry_2
_ccdc_geom_bond_type
Ce1     Er8    10.772   .     S
Ce1     Er24    10.772   .     S
Ce1     Er2    10.772   .     S
Er2     V3    9.797   .     S
Er2     V4    9.798   .     S
Er2     Er5    10.795   1_545     S
V3     Ti18    9.823   .     S
V3     V9    9.937   .     S
V4     Ti17    9.823   .     S
V4     V25    9.937   .     S
Er5     Ce27    10.772   .     S
Er5     V7    9.797   .     S
Er5     V6    9.797   .     S
Er5     Er2    10.795   1_565     S
V6     Ti17    9.823   1_565     S
V6     V12    9.937   .     S
V7     Ti18    9.823   1_565     S
V7     V23    9.937   .     S
Er8     V10    9.797   .     S
Er8     V9    9.797   .     S
Er8     Er11    10.795   .     S
V9     Ti19    9.823   .     S
V10     Ti20    9.823   .     S
V10     V26    9.937   .     S
Er11     Ce27    10.772   .     S
Er11     V12    9.797   .     S
Er11     V13    9.797   .     S
V12     Ti20    9.823   .     S
V13     Ti19    9.823   .     S
V13     V22    9.937   .     S
S14     Ti15    9.652   1_545     S
S14     Ti17    9.652   1_455     S
S14     Ti16    9.652   .     S
S14     Ti20    9.652   1_445     S
S14     Ti18    9.652   .     S
S14     Ti19    9.652   .     S
Ti15     S14    9.652   1_565     S
Ti15     V26    9.823   1_455     S
Ti15     V23    9.823   .     S
Ti16     V22    9.823   .     S
Ti16     V25    9.823   1_455     S
Ti17     S14    9.652   1_655     S
Ti17     V6    9.823   1_545     S
Ti18     V7    9.823   1_545     S
Ti20     S14    9.652   1_665     S
Er21     Ce27    10.772   .     S
Er21     V23    9.797   .     S
Er21     V22    9.798   .     S
Er21     Er24    10.795   1_455     S
Er24     V25    9.797   .     S
Er24     V26    9.797   .     S
Er24     Er21    10.795   1_655     S
V25     Ti16    9.823   1_655     S
V26     Ti15    9.823   1_655     S
