data_kry
_audit_creation_date              2020-02-16
_audit_creation_method            'Pymatgen'
_symmetry_space_group_name_H-M    'P1'
_symmetry_Int_Tables_number       1
loop_
_symmetry_equiv_pos_as_xyz
  x,y,z
_cell_length_a                    57.3206
_cell_length_b                    57.3206
_cell_length_c                    20.0
_cell_angle_alpha                 90.0
_cell_angle_beta                 90.0
_cell_angle_gamma                 120.0
loop_
_atom_site_label
_atom_site_type_symbol
_atom_site_fract_x
_atom_site_fract_y
_atom_site_fract_z
V1     V     0.2752   0.7248   0.0
V2     V     0.4496   0.7248   0.0
Ti3     Ti     0.4496   0.5504   0.0
Ti4     Ti     0.5504   0.4496   0.0
S5     S     0.3489   0.3489   0.0
S6     S     0.6511   0.6511   0.0
V7     V     0.5504   0.2752   0.0
Ti8     Ti     0.5504   0.1007   0.0
Ti9     Ti     0.4496   0.8993   0.0
S10     S     0.3489   0.0   0.0
S11     S     0.6511   0.0   0.0
V12     V     0.7248   0.2752   0.0
V13     V     0.7248   0.4496   0.0
Ti14     Ti     0.1007   0.5504   0.0
Ti15     Ti     0.8993   0.4496   0.0
S16     S     0.0   0.6511   0.0
S17     S     0.0   0.3489   0.0
V18     V     0.2752   0.5504   0.0
Er19     Er     0.6511   0.8255   0.0
Er20     Er     0.8255   0.1745   0.0
Er21     Er     0.8255   0.6511   0.0
Er22     Er     0.1745   0.8255   0.0
Er23     Er     0.3489   0.1745   0.0
Er24     Er     0.1745   0.3489   0.0
Ce25     Ce     0.8255   0.8255   0.0
Ce26     Ce     0.0   0.8255   0.0
Ce27     Ce     0.8255   0.0   0.0
Ce28     Ce     0.1745   0.1745   0.0
Ce29     Ce     0.0   0.1745   0.0
Ce30     Ce     0.1745   0.0   0.0
loop_
_geom_bond_atom_site_label_1
_geom_bond_atom_site_label_2
_geom_bond_distance
_geom_bond_site_symmetry_2
_ccdc_geom_bond_type
V1     Er22    10.0   .     S
V1     V2    10.0   .     S
V1     Ti9    10.0   .     S
V1     V18    10.0   .     S
V1     Ti14    10.0   .     S
V2     Er19    10.0   .     S
V2     Ti9    10.0   .     S
V2     Ti3    10.0   .     S
V2     V18    10.0   .     S
Ti3     Ti4    10.0   .     S
Ti3     S6    10.0   .     S
Ti3     S5    10.0   .     S
Ti3     V18    10.0   .     S
Ti4     S6    10.0   .     S
Ti4     S5    10.0   .     S
Ti4     V7    10.0   .     S
Ti4     V13    10.0   .     S
S5     Er23    10.0   .     S
S5     Er24    10.0   .     S
S5     Ce28    10.0   .     S
S6     Er19    10.0   .     S
S6     Er21    10.0   .     S
S6     Ce25    10.0   .     S
V7     Er23    10.0   .     S
V7     Ti8    10.0   .     S
V7     V12    10.0   .     S
V7     V13    10.0   .     S
Ti8     S10    10.0   .     S
Ti8     S11    10.0   .     S
Ti8     Ti9    10.0   1_545     S
Ti8     V12    10.0   .     S
Ti9     S10    10.0   1_565     S
Ti9     S11    10.0   1_565     S
Ti9     Ti8    10.0   1_565     S
S10     Ti9    10.0   1_545     S
S10     Er22    10.0   1_545     S
S10     Er23    10.0   .     S
S10     Ce30    10.0   .     S
S11     Ti9    10.0   1_545     S
S11     Er19    10.0   1_545     S
S11     Er20    10.0   .     S
S11     Ce27    10.0   .     S
V12     Er20    10.0   .     S
V12     V13    10.0   .     S
V12     Ti15    10.0   .     S
V13     Er21    10.0   .     S
V13     Ti15    10.0   .     S
Ti14     S17    10.0   .     S
Ti14     Ti15    10.0   1_455     S
Ti14     S16    10.0   .     S
Ti14     V18    10.0   .     S
Ti15     S16    10.0   1_655     S
Ti15     Ti14    10.0   1_655     S
Ti15     S17    10.0   1_655     S
S16     Ti15    10.0   1_455     S
S16     Er21    10.0   1_455     S
S16     Er22    10.0   .     S
S16     Ce26    10.0   .     S
S17     Ti15    10.0   1_455     S
S17     Er20    10.0   1_455     S
S17     Er24    10.0   .     S
S17     Ce29    10.0   .     S
V18     Er24    10.0   .     S
Er19     S11    10.0   1_565     S
Er19     Ce25    10.0   .     S
Er19     Ce27    10.0   1_565     S
Er20     Ce27    10.0   .     S
Er20     Ce29    10.0   1_655     S
Er20     S17    10.0   1_655     S
Er21     S16    10.0   1_655     S
Er21     Ce26    10.0   1_655     S
Er21     Ce25    10.0   .     S
Er22     Ce30    10.0   1_565     S
Er22     Ce26    10.0   .     S
Er22     S10    10.0   1_565     S
Er23     Ce28    10.0   .     S
Er23     Ce30    10.0   .     S
Er24     Ce29    10.0   .     S
Er24     Ce28    10.0   .     S
Ce25     Ce26    10.0   1_655     S
Ce25     Ce27    10.0   1_565     S
Ce26     Er21    10.0   1_455     S
Ce26     Ce25    10.0   1_455     S
Ce26     Ce30    10.0   1_565     S
Ce27     Er19    10.0   1_545     S
Ce27     Ce25    10.0   1_545     S
Ce27     Ce29    10.0   1_655     S
Ce28     Ce29    10.0   .     S
Ce28     Ce30    10.0   .     S
Ce29     Er20    10.0   1_455     S
Ce29     Ce27    10.0   1_455     S
Ce30     Er22    10.0   1_545     S
Ce30     Ce26    10.0   1_545     S
