data_mta
_audit_creation_date              2020-02-16
_audit_creation_method            'Pymatgen'
_symmetry_space_group_name_H-M    'P1'
_symmetry_Int_Tables_number       1
loop_
_symmetry_equiv_pos_as_xyz
  x,y,z
_cell_length_a                    25.359
_cell_length_b                    25.359
_cell_length_c                    20.0
_cell_angle_alpha                 90.0
_cell_angle_beta                 90.0
_cell_angle_gamma                 120.0
loop_
_atom_site_label
_atom_site_type_symbol
_atom_site_fract_x
_atom_site_fract_y
_atom_site_fract_z
Ti1     Ti     0.3333   0.6667   0.0
Er2     Er     0.5   0.0   0.0
Ti3     Ti     0.6667   0.3333   0.0
Er4     Er     0.5   0.5   0.0
Er5     Er     0.0   0.5   0.0
V6     V     0.0   0.0   0.0
loop_
_geom_bond_atom_site_label_1
_geom_bond_atom_site_label_2
_geom_bond_distance
_geom_bond_site_symmetry_2
_ccdc_geom_bond_type
Ti1     Er2    7.32   1_565     S
Ti1     Er4    7.321   .     S
Ti1     Er5    7.321   .     S
Er2     V6    12.68   1_655     S
Er2     V6    12.68   .     S
Er2     Ti1    7.32   1_545     S
Er2     Ti3    7.321   .     S
Ti3     Er5    7.321   1_655     S
Ti3     Er4    7.32   .     S
Er4     V6    12.68   1_665     S
Er4     V6    12.68   .     S
Er5     V6    12.679   1_565     S
Er5     V6    12.679   .     S
Er5     Ti3    7.321   1_455     S
V6     Er2    12.68   1_455     S
V6     Er4    12.68   1_445     S
V6     Er5    12.679   1_545     S
