data_mtd
_audit_creation_date              2020-02-16
_audit_creation_method            'Pymatgen'
_symmetry_space_group_name_H-M    'P1'
_symmetry_Int_Tables_number       1
loop_
_symmetry_equiv_pos_as_xyz
  x,y,z
_cell_length_a                    45.9171
_cell_length_b                    45.9171
_cell_length_c                    20.0
_cell_angle_alpha                 90.0
_cell_angle_beta                 90.0
_cell_angle_gamma                 120.0
loop_
_atom_site_label
_atom_site_type_symbol
_atom_site_fract_x
_atom_site_fract_y
_atom_site_fract_z
V1     V     0.6667   0.3333   0.0
Er2     Er     0.4899   0.245   0.0
Er3     Er     0.755   0.5101   0.0
Er4     Er     0.755   0.245   0.0
V5     V     0.3333   0.6667   0.0
Er6     Er     0.5101   0.755   0.0
Er7     Er     0.245   0.755   0.0
Er8     Er     0.245   0.4899   0.0
Ti9     Ti     0.5   0.0   0.0
Ti10     Ti     0.0   0.5   0.0
Ti11     Ti     0.5   0.5   0.0
loop_
_geom_bond_atom_site_label_1
_geom_bond_atom_site_label_2
_geom_bond_distance
_geom_bond_site_symmetry_2
_ccdc_geom_bond_type
V1     Er2    7.028   .     S
V1     Er3    7.028   .     S
V1     Er4    7.028   .     S
Er2     Ti9    11.486   .     S
Er2     Ti11    11.486   .     S
Er3     Ti11    11.486   .     S
Er3     Ti10    11.486   1_655     S
Er4     Ti9    11.486   .     S
Er4     Ti10    11.486   1_655     S
V5     Er6    7.028   .     S
V5     Er7    7.028   .     S
V5     Er8    7.028   .     S
Er6     Ti11    11.486   .     S
Er6     Ti9    11.486   1_565     S
Er7     Ti10    11.486   .     S
Er7     Ti9    11.486   1_565     S
Er8     Ti11    11.486   .     S
Er8     Ti10    11.486   .     S
Ti9     Er6    11.486   1_545     S
Ti9     Er7    11.486   1_545     S
Ti10     Er4    11.486   1_455     S
Ti10     Er3    11.486   1_455     S
