data_mte
_audit_creation_date              2020-02-16
_audit_creation_method            'Pymatgen'
_symmetry_space_group_name_H-M    'P1'
_symmetry_Int_Tables_number       1
loop_
_symmetry_equiv_pos_as_xyz
  x,y,z
_cell_length_a                    21.689
_cell_length_b                    21.689
_cell_length_c                    20.0
_cell_angle_alpha                 90.0
_cell_angle_beta                 90.0
_cell_angle_gamma                 90.0
loop_
_atom_site_label
_atom_site_type_symbol
_atom_site_fract_x
_atom_site_fract_y
_atom_site_fract_z
V1     V     0.0   0.0   0.0
Ti2     Ti     0.0   0.3211   0.0
Ti3     Ti     0.3211   0.0   0.0
Ti4     Ti     0.6789   0.0   0.0
Ti5     Ti     0.0   0.6789   0.0
Er6     Er     0.5   0.5   0.0
loop_
_geom_bond_atom_site_label_1
_geom_bond_atom_site_label_2
_geom_bond_distance
_geom_bond_site_symmetry_2
_ccdc_geom_bond_type
V1     Ti4    6.965   1_455     S
V1     Ti5    6.965   1_545     S
V1     Ti2    6.965   .     S
V1     Ti3    6.965   .     S
Ti2     Er6    11.518   1_455     S
Ti2     Er6    11.518   .     S
Ti3     Er6    11.518   1_545     S
Ti3     Er6    11.518   .     S
Ti4     V1    6.965   1_655     S
Ti4     Er6    11.518   1_545     S
Ti4     Er6    11.518   .     S
Ti5     V1    6.965   1_565     S
Ti5     Er6    11.518   1_455     S
Ti5     Er6    11.518   .     S
Er6     Ti5    11.518   1_655     S
Er6     Ti2    11.518   1_655     S
Er6     Ti3    11.518   1_565     S
Er6     Ti4    11.518   1_565     S
