data_mtea
_audit_creation_date              2020-02-16
_audit_creation_method            'Pymatgen'
_symmetry_space_group_name_H-M    'P1'
_symmetry_Int_Tables_number       1
loop_
_symmetry_equiv_pos_as_xyz
  x,y,z
_cell_length_a                    60.1506
_cell_length_b                    60.1506
_cell_length_c                    20.0
_cell_angle_alpha                 90.0
_cell_angle_beta                 90.0
_cell_angle_gamma                 90.0
loop_
_atom_site_label
_atom_site_type_symbol
_atom_site_fract_x
_atom_site_fract_y
_atom_site_fract_z
Ti1     Ti     0.2526   0.0   0.0
Er2     Er     0.3591   0.9142   0.0
Er3     Er     0.3591   0.0858   0.0
Ti4     Ti     0.0   0.7474   0.0
Er5     Er     0.9142   0.6409   0.0
Er6     Er     0.0858   0.6409   0.0
Ti7     Ti     0.7474   0.0   0.0
Er8     Er     0.6409   0.0858   0.0
Er9     Er     0.6409   0.9142   0.0
Ce10     Ce     0.0993   0.0   0.0
Ce11     Ce     0.0   0.0993   0.0
Ce12     Ce     0.9007   0.0   0.0
Ce13     Ce     0.0   0.9007   0.0
Ti14     Ti     0.0   0.2526   0.0
Er15     Er     0.0858   0.3591   0.0
Er16     Er     0.9142   0.3591   0.0
V17     V     0.7365   0.5962   0.0
V18     V     0.5962   0.7365   0.0
V19     V     0.4038   0.7365   0.0
V20     V     0.7365   0.4038   0.0
V21     V     0.5962   0.2635   0.0
V22     V     0.2635   0.5962   0.0
V23     V     0.2635   0.4038   0.0
V24     V     0.4038   0.2635   0.0
loop_
_geom_bond_atom_site_label_1
_geom_bond_atom_site_label_2
_geom_bond_distance
_geom_bond_site_symmetry_2
_ccdc_geom_bond_type
Ti1     Ce10    9.218   .     S
Ti1     Er2    8.231   1_545     S
Ti1     Er3    8.231   .     S
Er2     V19    11.019   .     S
Er2     Er3    10.328   1_565     S
Er2     Ti1    8.231   1_565     S
Er3     V24    11.019   .     S
Er3     Er2    10.328   1_545     S
Ti4     Ce13    9.218   .     S
Ti4     Er5    8.231   1_455     S
Ti4     Er6    8.231   .     S
Er5     V17    11.019   .     S
Er5     Er6    10.328   1_655     S
Er5     Ti4    8.231   1_655     S
Er6     V22    11.019   .     S
Er6     Er5    10.328   1_455     S
Ti7     Ce12    9.218   .     S
Ti7     Er9    8.231   1_545     S
Ti7     Er8    8.231   .     S
Er8     V21    11.019   .     S
Er8     Er9    10.328   1_545     S
Er9     V18    11.019   .     S
Er9     Er8    10.328   1_565     S
Er9     Ti7    8.231   1_565     S
Ce10     Ce13    8.447   1_545     S
Ce10     Ce11    8.447   .     S
Ce11     Ti14    9.218   .     S
Ce11     Ce12    8.447   1_455     S
Ce12     Ce11    8.447   1_655     S
Ce12     Ce13    8.447   1_645     S
Ce13     Ce10    8.447   1_565     S
Ce13     Ce12    8.447   1_465     S
Ti14     Er16    8.231   1_455     S
Ti14     Er15    8.231   .     S
Er15     V23    11.019   .     S
Er15     Er16    10.328   1_455     S
Er16     V20    11.019   .     S
Er16     Er15    10.328   1_655     S
Er16     Ti14    8.231   1_655     S
V17     V20    11.567   .     S
V17     V18    11.94   .     S
V18     V19    11.567   .     S
V19     V22    11.94   .     S
V20     V21    11.94   .     S
V21     V24    11.567   .     S
V22     V23    11.567   .     S
V23     V24    11.94   .     S
