data_mtg
_audit_creation_date              2020-02-16
_audit_creation_method            'Pymatgen'
_symmetry_space_group_name_H-M    'P1'
_symmetry_Int_Tables_number       1
loop_
_symmetry_equiv_pos_as_xyz
  x,y,z
_cell_length_a                    47.3339
_cell_length_b                    47.3339
_cell_length_c                    20.0
_cell_angle_alpha                 90.0
_cell_angle_beta                 90.0
_cell_angle_gamma                 120.0
loop_
_atom_site_label
_atom_site_type_symbol
_atom_site_fract_x
_atom_site_fract_y
_atom_site_fract_z
V1     V     0.6667   0.3333   0.0
Er2     Er     0.4223   0.2111   0.0
Ti3     Ti     0.2111   0.2111   0.0
Er4     Er     0.2111   0.4223   0.0
Er5     Er     0.5777   0.7889   0.0
Er6     Er     0.7889   0.5777   0.0
Ti7     Ti     0.0   0.2111   0.0
Er8     Er     0.7889   0.2111   0.0
Ti9     Ti     0.2111   0.0   0.0
Er10     Er     0.2111   0.7889   0.0
Ti11     Ti     0.0   0.7889   0.0
Ti12     Ti     0.7889   0.7889   0.0
Ti13     Ti     0.7889   0.0   0.0
Ce14     Ce     0.0   0.0   0.0
V15     V     0.3333   0.6667   0.0
loop_
_geom_bond_atom_site_label_1
_geom_bond_atom_site_label_2
_geom_bond_distance
_geom_bond_site_symmetry_2
_ccdc_geom_bond_type
V1     Er6    10.018   .     S
V1     Er2    10.018   .     S
V1     Er8    10.019   .     S
Er2     Ti3    9.994   .     S
Er2     Ti9    9.994   .     S
Ti3     Ce14    9.994   .     S
Ti3     Er4    9.994   .     S
Er4     V15    10.019   .     S
Er4     Ti7    9.994   .     S
Er5     V15    10.018   .     S
Er5     Ti12    9.994   .     S
Er5     Ti13    9.994   1_565     S
Er6     Ti11    9.994   1_655     S
Er6     Ti12    9.994   .     S
Ti7     Ce14    9.994   .     S
Ti7     Er8    9.994   1_455     S
Er8     Ti13    9.994   .     S
Er8     Ti7    9.994   1_655     S
Ti9     Ce14    9.994   .     S
Ti9     Er10    9.994   1_545     S
Er10     V15    10.018   .     S
Er10     Ti9    9.994   1_565     S
Er10     Ti11    9.994   .     S
Ti11     Er6    9.994   1_455     S
Ti11     Ce14    9.994   1_565     S
Ti12     Ce14    9.994   1_665     S
Ti13     Er5    9.994   1_545     S
Ti13     Ce14    9.994   1_655     S
Ce14     Ti11    9.994   1_545     S
Ce14     Ti12    9.994   1_445     S
Ce14     Ti13    9.994   1_455     S
