data_mth
_audit_creation_date              2020-02-16
_audit_creation_method            'Pymatgen'
_symmetry_space_group_name_H-M    'P1'
_symmetry_Int_Tables_number       1
loop_
_symmetry_equiv_pos_as_xyz
  x,y,z
_cell_length_a                    34.673
_cell_length_b                    34.673
_cell_length_c                    20.0
_cell_angle_alpha                 90.0
_cell_angle_beta                 90.0
_cell_angle_gamma                 120.0
loop_
_atom_site_label
_atom_site_type_symbol
_atom_site_fract_x
_atom_site_fract_y
_atom_site_fract_z
Ce1     Ce     0.5   0.5   0.0
Ce2     Ce     0.5   0.0   0.0
Er3     Er     0.8327   0.1673   0.0
Ti4     Ti     0.6667   0.3333   0.0
Er5     Er     0.8327   0.6654   0.0
Er6     Er     0.3346   0.1673   0.0
Er7     Er     0.1673   0.3346   0.0
Er8     Er     0.1673   0.8327   0.0
Ti9     Ti     0.3333   0.6667   0.0
Er10     Er     0.6654   0.8327   0.0
Ce11     Ce     0.0   0.5   0.0
V12     V     0.0   0.0   0.0
loop_
_geom_bond_atom_site_label_1
_geom_bond_atom_site_label_2
_geom_bond_distance
_geom_bond_site_symmetry_2
_ccdc_geom_bond_type
Ce1     Er7    9.991   .     S
Ce1     Er6    9.991   .     S
Ce1     Er10    9.991   .     S
Ce1     Er5    9.991   .     S
Ce2     Er6    9.991   .     S
Ce2     Er3    9.991   .     S
Ce2     Er8    9.991   1_545     S
Ce2     Er10    9.991   1_545     S
Er3     Ti4    9.972   .     S
Er3     Ce11    9.991   1_655     S
Er3     V12    10.046   1_655     S
Ti4     Er5    9.972   .     S
Ti4     Er6    9.972   .     S
Er5     Ce11    9.991   1_655     S
Er5     V12    10.046   1_665     S
Er6     V12    10.046   .     S
Er7     Ti9    9.972   .     S
Er7     Ce11    9.991   .     S
Er7     V12    10.046   .     S
Er8     Ti9    9.972   .     S
Er8     Ce11    9.991   .     S
Er8     Ce2    9.991   1_565     S
Er8     V12    10.046   1_565     S
Ti9     Er10    9.972   .     S
Er10     Ce2    9.991   1_565     S
Er10     V12    10.046   1_665     S
Ce11     Er5    9.991   1_455     S
Ce11     Er3    9.991   1_455     S
V12     Er10    10.046   1_445     S
V12     Er5    10.046   1_445     S
V12     Er3    10.046   1_455     S
V12     Er8    10.046   1_545     S
