data_mtha
_audit_creation_date              2020-02-16
_audit_creation_method            'Pymatgen'
_symmetry_space_group_name_H-M    'P1'
_symmetry_Int_Tables_number       1
loop_
_symmetry_equiv_pos_as_xyz
  x,y,z
_cell_length_a                    83.3918
_cell_length_b                    83.3918
_cell_length_c                    20.0
_cell_angle_alpha                 90.0
_cell_angle_beta                 90.0
_cell_angle_gamma                 120.0
loop_
_atom_site_label
_atom_site_type_symbol
_atom_site_fract_x
_atom_site_fract_y
_atom_site_fract_z
V1     V     0.1392   0.0696   0.0
V2     V     0.9304   0.8608   0.0
V3     V     0.8608   0.9304   0.0
V4     V     0.9304   0.0696   0.0
V5     V     0.0696   0.1392   0.0
V6     V     0.0696   0.9304   0.0
Er7     Er     0.8608   0.7217   0.0
Er8     Er     0.1392   0.8608   0.0
Er9     Er     0.7217   0.8608   0.0
Er10     Er     0.8608   0.1392   0.0
Er11     Er     0.1392   0.2783   0.0
S12     S     0.4054   0.931   0.0
S13     S     0.4744   0.069   0.0
S14     S     0.5256   0.931   0.0
S15     S     0.5946   0.069   0.0
S16     S     0.4054   0.4744   0.0
S17     S     0.4744   0.4054   0.0
S18     S     0.5946   0.5256   0.0
S19     S     0.5256   0.5946   0.0
S20     S     0.931   0.5256   0.0
S21     S     0.069   0.5946   0.0
S22     S     0.931   0.4054   0.0
S23     S     0.069   0.4744   0.0
Ce24     Ce     0.2248   0.7752   0.0
H25     H     0.2936   0.7064   0.0
Ti26     Ti     0.0884   0.7234   0.0
Ti27     Ti     0.2766   0.9116   0.0
Ce28     Ce     0.5505   0.7752   0.0
H29     H     0.4129   0.7064   0.0
Ti30     Ti     0.635   0.7234   0.0
Ti31     Ti     0.635   0.9116   0.0
Ce32     Ce     0.2248   0.4495   0.0
H33     H     0.2936   0.5871   0.0
Ti34     Ti     0.0884   0.365   0.0
Ti35     Ti     0.2766   0.365   0.0
Ce36     Ce     0.7752   0.2248   0.0
H37     H     0.7064   0.2936   0.0
Ti38     Ti     0.7234   0.0884   0.0
Ti39     Ti     0.9116   0.2766   0.0
Ce40     Ce     0.7752   0.5505   0.0
H41     H     0.7064   0.4129   0.0
Ti42     Ti     0.9116   0.635   0.0
Ti43     Ti     0.7234   0.635   0.0
Ce44     Ce     0.4495   0.2248   0.0
H45     H     0.5871   0.2936   0.0
Ti46     Ti     0.365   0.0884   0.0
Ti47     Ti     0.365   0.2766   0.0
Er48     Er     0.2783   0.1392   0.0
loop_
_geom_bond_atom_site_label_1
_geom_bond_atom_site_label_2
_geom_bond_distance
_geom_bond_site_symmetry_2
_ccdc_geom_bond_type
V1     V5    10.051   .     S
V1     V6    10.051   1_545     S
V1     Er48    10.051   .     S
V2     V3    10.051   .     S
V2     V6    10.051   1_655     S
V2     Er7    10.051   .     S
V3     V4    10.051   1_565     S
V3     Er9    10.051   .     S
V4     V5    10.05   1_655     S
V4     V3    10.051   1_545     S
V4     Er10    10.051   .     S
V5     V4    10.05   1_455     S
V5     Er11    10.051   .     S
V6     V2    10.051   1_455     S
V6     V1    10.051   1_565     S
V6     Er8    10.051   .     S
Er7     Ti43    10.034   .     S
Er7     Ti42    10.034   .     S
Er8     Ti26    10.034   .     S
Er8     Ti27    10.034   .     S
Er9     Ti31    10.034   .     S
Er9     Ti30    10.034   .     S
Er10     Ti38    10.034   .     S
Er10     Ti39    10.034   .     S
Er11     Ti34    10.034   .     S
Er11     Ti35    10.034   .     S
S12     S14    10.03   .     S
S12     Ti27    10.031   .     S
S12     S13    9.971   1_565     S
S13     S15    10.03   .     S
S13     Ti46    10.031   .     S
S13     S12    9.971   1_545     S
S14     Ti31    10.031   .     S
S14     S15    9.971   1_565     S
S15     Ti38    10.031   .     S
S15     S14    9.971   1_545     S
S16     S19    10.03   .     S
S16     Ti35    10.031   .     S
S16     S17    9.971   .     S
S17     S18    10.03   .     S
S17     Ti47    10.031   .     S
S18     Ti43    10.031   .     S
S18     S19    9.971   .     S
S19     Ti30    10.031   .     S
S20     S22    10.03   .     S
S20     Ti42    10.031   .     S
S20     S21    9.971   1_655     S
S21     S23    10.03   .     S
S21     Ti26    10.031   .     S
S21     S20    9.971   1_455     S
S22     Ti39    10.031   .     S
S22     S23    9.971   1_655     S
S23     Ti34    10.031   .     S
S23     S22    9.971   1_455     S
Ce24     H25    9.939   .     S
Ce24     Ti27    9.942   .     S
Ce24     Ti26    9.942   .     S
H25     H33    9.947   .     S
H25     H29    9.947   .     S
Ce28     H29    9.939   .     S
Ce28     Ti31    9.942   .     S
Ce28     Ti30    9.942   .     S
H29     H33    9.946   .     S
Ce32     H33    9.939   .     S
Ce32     Ti34    9.942   .     S
Ce32     Ti35    9.942   .     S
Ce36     H37    9.939   .     S
Ce36     Ti39    9.942   .     S
Ce36     Ti38    9.942   .     S
H37     H41    9.946   .     S
H37     H45    9.947   .     S
Ce40     H41    9.939   .     S
Ce40     Ti42    9.942   .     S
Ce40     Ti43    9.942   .     S
H41     H45    9.947   .     S
Ce44     H45    9.939   .     S
Ce44     Ti46    9.942   .     S
Ce44     Ti47    9.942   .     S
Ti46     Er48    10.034   .     S
Ti47     Er48    10.034   .     S
