data_pna
_audit_creation_date              2020-02-16
_audit_creation_method            'Pymatgen'
_symmetry_space_group_name_H-M    'P1'
_symmetry_Int_Tables_number       1
loop_
_symmetry_equiv_pos_as_xyz
  x,y,z
_cell_length_a                    30.7736
_cell_length_b                    30.7736
_cell_length_c                    20.0
_cell_angle_alpha                 90.0
_cell_angle_beta                 90.0
_cell_angle_gamma                 90.0
loop_
_atom_site_label
_atom_site_type_symbol
_atom_site_fract_x
_atom_site_fract_y
_atom_site_fract_z
Er1     Er     0.0   0.332   0.0
Er2     Er     0.332   0.0   0.0
Er3     Er     0.0   0.668   0.0
Ti4     Ti     0.5   0.7264   0.0
Ti5     Ti     0.7264   0.5   0.0
Ti6     Ti     0.2736   0.5   0.0
Ti7     Ti     0.5   0.2736   0.0
Er8     Er     0.668   0.0   0.0
V9     V     0.0   0.0   0.0
loop_
_geom_bond_atom_site_label_1
_geom_bond_atom_site_label_2
_geom_bond_distance
_geom_bond_site_symmetry_2
_ccdc_geom_bond_type
Er1     Er3    10.339   .     S
Er1     Ti6    9.88   .     S
Er1     Ti5    9.88   1_455     S
Er1     V9    10.217   .     S
Er2     Er8    10.339   .     S
Er2     Ti7    9.88   .     S
Er2     Ti4    9.88   1_545     S
Er2     V9    10.217   .     S
Er3     Ti6    9.88   .     S
Er3     Ti5    9.88   1_455     S
Er3     V9    10.217   1_565     S
Ti4     Ti5    9.853   .     S
Ti4     Ti6    9.853   .     S
Ti4     Er2    9.88   1_565     S
Ti4     Er8    9.88   1_565     S
Ti5     Ti7    9.853   .     S
Ti5     Er1    9.88   1_655     S
Ti5     Er3    9.88   1_655     S
Ti6     Ti7    9.853   .     S
Ti7     Er8    9.88   .     S
Er8     Ti4    9.88   1_545     S
Er8     V9    10.217   1_655     S
V9     Er8    10.217   1_455     S
V9     Er3    10.217   1_545     S
