data_pnc
_audit_creation_date              2020-02-16
_audit_creation_method            'Pymatgen'
_symmetry_space_group_name_H-M    'P1'
_symmetry_Int_Tables_number       1
loop_
_symmetry_equiv_pos_as_xyz
  x,y,z
_cell_length_a                    45.0979
_cell_length_b                    45.0979
_cell_length_c                    20.0
_cell_angle_alpha                 90.0
_cell_angle_beta                 90.0
_cell_angle_gamma                 90.0
loop_
_atom_site_label
_atom_site_type_symbol
_atom_site_fract_x
_atom_site_fract_y
_atom_site_fract_z
Ti1     Ti     0.1358   0.9216   0.0
Ti2     Ti     0.9216   0.8642   0.0
Ti3     Ti     0.0784   0.1358   0.0
Ti4     Ti     0.3642   0.4216   0.0
Ti5     Ti     0.4216   0.6358   0.0
Ti6     Ti     0.8642   0.0784   0.0
Ti7     Ti     0.5784   0.3642   0.0
Er8     Er     0.2142   0.7142   0.0
Er9     Er     0.7858   0.2858   0.0
V10     V     0.0   0.3432   0.0
V11     V     0.8432   0.5   0.0
V12     V     0.0   0.6568   0.0
V13     V     0.1568   0.5   0.0
Ti14     Ti     0.6358   0.5784   0.0
Er15     Er     0.7142   0.7858   0.0
Er16     Er     0.2858   0.2142   0.0
V17     V     0.3432   0.0   0.0
V18     V     0.5   0.8432   0.0
V19     V     0.6568   0.0   0.0
V20     V     0.5   0.1568   0.0
loop_
_geom_bond_atom_site_label_1
_geom_bond_atom_site_label_2
_geom_bond_distance
_geom_bond_site_symmetry_2
_ccdc_geom_bond_type
Ti1     Ti2    10.0   1_455     S
Ti1     V17    10.0   1_565     S
Ti1     Ti3    10.0   1_565     S
Ti1     Er8    10.0   .     S
Ti2     Ti1    10.0   1_655     S
Ti2     Ti6    10.0   1_565     S
Ti2     Er15    10.0   .     S
Ti2     V12    10.0   1_655     S
Ti3     Ti1    10.0   1_545     S
Ti3     V10    10.0   .     S
Ti3     Ti6    10.0   1_455     S
Ti3     Er16    10.0   .     S
Ti4     Ti7    10.0   .     S
Ti4     V13    10.0   .     S
Ti4     Ti5    10.0   .     S
Ti4     Er16    10.0   .     S
Ti5     V18    10.0   .     S
Ti5     Er8    10.0   .     S
Ti5     Ti14    10.0   .     S
Ti6     Ti2    10.0   1_545     S
Ti6     Ti3    10.0   1_655     S
Ti6     Er9    10.0   .     S
Ti6     V19    10.0   .     S
Ti7     Ti14    10.0   .     S
Ti7     Er9    10.0   .     S
Ti7     V20    10.0   .     S
Er8     V12    10.0   .     S
Er8     V13    10.0   .     S
Er9     V11    10.0   .     S
Er9     V10    10.0   1_655     S
V10     V11    10.0   1_455     S
V10     Er9    10.0   1_455     S
V10     V13    10.0   .     S
V11     V10    10.0   1_655     S
V11     V12    10.0   1_655     S
V11     Ti14    10.0   .     S
V12     V13    10.0   .     S
V12     V11    10.0   1_455     S
V12     Ti2    10.0   1_455     S
Ti14     Er15    10.0   .     S
Er15     V19    10.0   1_565     S
Er15     V18    10.0   .     S
Er16     V20    10.0   .     S
Er16     V17    10.0   .     S
V17     Ti1    10.0   1_545     S
V17     V20    10.0   .     S
V17     V18    10.0   1_545     S
V18     V19    10.0   1_565     S
V18     V17    10.0   1_565     S
V19     V18    10.0   1_545     S
V19     Er15    10.0   1_545     S
V19     V20    10.0   .     S
