data_png
_audit_creation_date              2020-02-16
_audit_creation_method            'Pymatgen'
_symmetry_space_group_name_H-M    'P1'
_symmetry_Int_Tables_number       1
loop_
_symmetry_equiv_pos_as_xyz
  x,y,z
_cell_length_a                    26.4515
_cell_length_b                    23.8123
_cell_length_c                    20.0
_cell_angle_alpha                 90.0
_cell_angle_beta                 90.0
_cell_angle_gamma                 90.0
loop_
_atom_site_label
_atom_site_type_symbol
_atom_site_fract_x
_atom_site_fract_y
_atom_site_fract_z
V1     V     0.25   0.9376   0.0
V2     V     0.25   0.0624   0.0
Er3     Er     0.439   0.6988   0.0
Er4     Er     0.061   0.6988   0.0
Er5     Er     0.439   0.3012   0.0
Er6     Er     0.061   0.3012   0.0
V7     V     0.75   0.9376   0.0
V8     V     0.75   0.0624   0.0
Er9     Er     0.561   0.6988   0.0
Er10     Er     0.939   0.6988   0.0
Er11     Er     0.561   0.3012   0.0
Er12     Er     0.939   0.3012   0.0
loop_
_geom_bond_atom_site_label_1
_geom_bond_atom_site_label_2
_geom_bond_distance
_geom_bond_site_symmetry_2
_ccdc_geom_bond_type
V1     Er10    10.0   1_455     S
V1     Er9    10.0   .     S
V1     Er6    10.0   1_565     S
V1     Er5    10.0   1_565     S
V2     Er4    10.0   1_545     S
V2     Er3    10.0   1_545     S
V2     Er12    10.0   1_455     S
V2     Er11    10.0   .     S
Er3     V2    10.0   1_565     S
Er3     V7    10.0   .     S
Er3     Er4    10.0   .     S
Er3     Er11    10.0   .     S
Er4     V2    10.0   1_565     S
Er4     V7    10.0   1_455     S
Er4     Er12    10.0   1_455     S
Er5     V1    10.0   1_545     S
Er5     V8    10.0   .     S
Er5     Er6    10.0   .     S
Er5     Er9    10.0   .     S
Er6     V1    10.0   1_545     S
Er6     V8    10.0   1_455     S
Er6     Er10    10.0   1_455     S
V7     Er4    10.0   1_655     S
V7     Er12    10.0   1_565     S
V7     Er11    10.0   1_565     S
V8     Er10    10.0   1_545     S
V8     Er9    10.0   1_545     S
V8     Er6    10.0   1_655     S
Er9     V8    10.0   1_565     S
Er9     Er10    10.0   .     S
Er10     V1    10.0   1_655     S
Er10     V8    10.0   1_565     S
Er10     Er6    10.0   1_655     S
Er11     V7    10.0   1_545     S
Er11     Er12    10.0   .     S
Er12     V2    10.0   1_655     S
Er12     V7    10.0   1_545     S
Er12     Er4    10.0   1_655     S
