data_sdc
_audit_creation_date              2020-02-16
_audit_creation_method            'Pymatgen'
_symmetry_space_group_name_H-M    'P1'
_symmetry_Int_Tables_number       1
loop_
_symmetry_equiv_pos_as_xyz
  x,y,z
_cell_length_a                    20.0
_cell_length_b                    20.0
_cell_length_c                    37.3205
_cell_angle_alpha                 90.0
_cell_angle_beta                 90.0
_cell_angle_gamma                 90.0
loop_
_atom_site_label
_atom_site_type_symbol
_atom_site_fract_x
_atom_site_fract_y
_atom_site_fract_z
V1     V     0.125   0.0   0.116
V2     V     0.625   0.0   0.116
V3     V     0.375   0.0   0.884
V4     V     0.875   0.0   0.884
Er5     Er     0.375   0.0   0.616
Er6     Er     0.875   0.0   0.616
Er7     Er     0.125   0.0   0.384
Er8     Er     0.625   0.0   0.384
loop_
_geom_bond_atom_site_label_1
_geom_bond_atom_site_label_2
_geom_bond_distance
_geom_bond_site_symmetry_2
_ccdc_geom_bond_type
V1     V3    10.0   1_554     S
V1     V2    10.0   .     S
V1     V2    10.0   1_455     S
V1     V4    10.0   1_454     S
V1     Er7    10.0   .     S
V2     V4    10.0   1_554     S
V2     V1    10.0   1_655     S
V2     V3    10.0   1_554     S
V2     Er8    10.0   .     S
V3     V1    10.0   1_556     S
V3     V2    10.0   1_556     S
V3     V4    10.0   1_455     S
V3     V4    10.0   .     S
V3     Er5    10.0   .     S
V4     V2    10.0   1_556     S
V4     V1    10.0   1_656     S
V4     V3    10.0   1_655     S
V4     Er6    10.0   .     S
Er5     Er7    10.0   .     S
Er5     Er8    10.0   .     S
Er6     Er8    10.0   .     S
Er6     Er7    10.0   1_655     S
Er7     Er6    10.0   1_455     S
