data_sdf
_audit_creation_date              2020-02-16
_audit_creation_method            'Pymatgen'
_symmetry_space_group_name_H-M    'P1'
_symmetry_Int_Tables_number       1
loop_
_symmetry_equiv_pos_as_xyz
  x,y,z
_cell_length_a                    20.0
_cell_length_b                    19.2355
_cell_length_c                    19.3969
_cell_angle_alpha                 90.0
_cell_angle_beta                 90.0
_cell_angle_gamma                 90.0
loop_
_atom_site_label
_atom_site_type_symbol
_atom_site_fract_x
_atom_site_fract_y
_atom_site_fract_z
Er1     Er     0.0   0.4366   0.0
Er2     Er     0.0   0.5634   0.5
V3     V     0.0   0.0634   0.6412
V4     V     0.0   0.9366   0.1412
loop_
_geom_bond_atom_site_label_1
_geom_bond_atom_site_label_2
_geom_bond_distance
_geom_bond_site_symmetry_2
_ccdc_geom_bond_type
Er1     V4    10.0   1_545     S
Er1     V3    10.0   1_554     S
Er1     V4    10.0   .     S
Er1     Er2    10.0   .     S
Er1     Er2    10.0   1_554     S
Er2     V3    10.0   .     S
Er2     V3    10.0   1_565     S
Er2     V4    10.0   .     S
Er2     Er1    10.0   1_556     S
V3     Er1    10.0   1_556     S
V3     Er2    10.0   1_545     S
V4     Er1    10.0   1_565     S
