data_sdh
_audit_creation_date              2020-02-16
_audit_creation_method            'Pymatgen'
_symmetry_space_group_name_H-M    'P1'
_symmetry_Int_Tables_number       1
loop_
_symmetry_equiv_pos_as_xyz
  x,y,z
_cell_length_a                    20.0
_cell_length_b                    28.8832
_cell_length_c                    19.6483
_cell_angle_alpha                 90.0
_cell_angle_beta                 90.0
_cell_angle_gamma                 90.0
loop_
_atom_site_label
_atom_site_type_symbol
_atom_site_fract_x
_atom_site_fract_y
_atom_site_fract_z
Ti1     Ti     0.0   0.0323   0.3323
Er2     Er     0.0   0.2946   0.0
V3     V     0.0   0.6408   0.0
Ti4     Ti     0.0   0.9677   0.8323
Er5     Er     0.0   0.7054   0.5
V6     V     0.0   0.3592   0.5
loop_
_geom_bond_atom_site_label_1
_geom_bond_atom_site_label_2
_geom_bond_distance
_geom_bond_site_symmetry_2
_ccdc_geom_bond_type
Ti1     Er2    10.0   .     S
Ti1     V6    10.0   .     S
Ti1     Ti4    10.0   1_544     S
Ti1     Ti4    10.0   1_545     S
Ti1     Er5    10.0   1_545     S
Er2     Ti4    10.0   1_544     S
Er2     V3    10.0   .     S
Er2     V6    10.0   1_554     S
V3     Ti4    10.0   1_554     S
V3     Er5    10.0   .     S
Ti4     Ti1    10.0   1_566     S
Ti4     Er2    10.0   1_566     S
Ti4     Er5    10.0   .     S
Ti4     V3    10.0   1_556     S
Ti4     Ti1    10.0   1_565     S
Er5     Ti1    10.0   1_565     S
Er5     V6    10.0   .     S
V6     Er2    10.0   1_556     S
