data_sdl
_audit_creation_date              2020-02-16
_audit_creation_method            'Pymatgen'
_symmetry_space_group_name_H-M    'P1'
_symmetry_Int_Tables_number       1
loop_
_symmetry_equiv_pos_as_xyz
  x,y,z
_cell_length_a                    20.0628
_cell_length_b                    47.2529
_cell_length_c                    20.0
_cell_angle_alpha                 90.0
_cell_angle_beta                 90.0
_cell_angle_gamma                 90.0
loop_
_atom_site_label
_atom_site_type_symbol
_atom_site_fract_x
_atom_site_fract_y
_atom_site_fract_z
Er1     Er     0.25   0.7117   0.0
Er2     Er     0.75   0.7117   0.0
V3     V     0.0   0.8942   0.0
V4     V     0.5   0.8942   0.0
V5     V     0.0   0.1058   0.0
V6     V     0.5   0.1058   0.0
Er7     Er     0.25   0.2883   0.0
Er8     Er     0.75   0.2883   0.0
Ti9     Ti     0.25   0.5   0.0
Ti10     Ti     0.75   0.5   0.0
loop_
_geom_bond_atom_site_label_1
_geom_bond_atom_site_label_2
_geom_bond_distance
_geom_bond_site_symmetry_2
_ccdc_geom_bond_type
Er1     Ti9    10.004   .     S
Er1     V4    9.974   .     S
Er1     V3    9.974   .     S
Er2     Ti10    10.004   .     S
Er2     V3    9.974   1_655     S
Er2     V4    9.974   .     S
V3     V5    10.003   1_565     S
V3     Er2    9.974   1_455     S
V3     V4    10.031   .     S
V3     V4    10.031   1_455     S
V4     V6    10.003   1_565     S
V4     V3    10.031   1_655     S
V5     V3    10.003   1_545     S
V5     Er7    9.974   .     S
V5     Er8    9.974   1_455     S
V5     V6    10.031   .     S
V5     V6    10.031   1_455     S
V6     V4    10.003   1_545     S
V6     Er8    9.974   .     S
V6     Er7    9.974   .     S
V6     V5    10.031   1_655     S
Er7     Ti9    10.004   .     S
Er8     Ti10    10.004   .     S
Er8     V5    9.974   1_655     S
Ti9     Ti10    10.031   1_455     S
Ti9     Ti10    10.031   .     S
Ti10     Ti9    10.031   1_655     S
