data_sdq
_audit_creation_date              2020-02-16
_audit_creation_method            'Pymatgen'
_symmetry_space_group_name_H-M    'P1'
_symmetry_Int_Tables_number       1
loop_
_symmetry_equiv_pos_as_xyz
  x,y,z
_cell_length_a                    19.9999
_cell_length_b                    20.0
_cell_length_c                    27.295
_cell_angle_alpha                 90.0
_cell_angle_beta                 90.0
_cell_angle_gamma                 90.0
loop_
_atom_site_label
_atom_site_type_symbol
_atom_site_fract_x
_atom_site_fract_y
_atom_site_fract_z
V1     V     0.75   0.0   0.8173
Ti2     Ti     0.0   0.0   0.5
Ti3     Ti     0.5   0.0   0.5
V4     V     0.25   0.0   0.1827
Er5     Er     0.75   0.0   0.1837
Er6     Er     0.25   0.0   0.8163
loop_
_geom_bond_atom_site_label_1
_geom_bond_atom_site_label_2
_geom_bond_distance
_geom_bond_site_symmetry_2
_ccdc_geom_bond_type
V1     Ti2    10.0   1_655     S
V1     Er6    10.0   1_655     S
V1     Ti3    10.0   .     S
V1     Er6    10.0   .     S
V1     Er5    10.0   1_556     S
Ti2     V1    10.0   1_455     S
Ti2     V4    10.0   .     S
Ti2     Ti3    10.0   .     S
Ti2     Ti3    10.0   1_455     S
Ti3     V4    10.0   .     S
Ti3     Ti2    10.0   1_655     S
V4     Er5    10.0   .     S
V4     Er5    10.0   1_455     S
V4     Er6    10.0   1_554     S
Er5     V4    10.0   1_655     S
Er5     V1    10.0   1_554     S
Er6     V1    10.0   1_455     S
Er6     V4    10.0   1_556     S
