data_sdu
_audit_creation_date              2020-02-16
_audit_creation_method            'Pymatgen'
_symmetry_space_group_name_H-M    'P1'
_symmetry_Int_Tables_number       1
loop_
_symmetry_equiv_pos_as_xyz
  x,y,z
_cell_length_a                    40.0002
_cell_length_b                    34.6408
_cell_length_c                    20.0
_cell_angle_alpha                 90.0
_cell_angle_beta                 90.0
_cell_angle_gamma                 90.0
loop_
_atom_site_label
_atom_site_type_symbol
_atom_site_fract_x
_atom_site_fract_y
_atom_site_fract_z
V1     V     0.875   0.25   0.0
V2     V     0.875   0.75   0.0
V3     V     0.375   0.25   0.0
Ti4     Ti     0.75   0.0   0.0
V5     V     0.375   0.75   0.0
V6     V     0.125   0.75   0.0
V7     V     0.625   0.75   0.0
Er8     Er     0.0   0.0   0.0
V9     V     0.125   0.25   0.0
Ti10     Ti     0.25   0.5   0.0
V11     V     0.625   0.25   0.0
Er12     Er     0.5   0.5   0.0
Ti13     Ti     0.25   0.0   0.0
Ti14     Ti     0.75   0.5   0.0
loop_
_geom_bond_atom_site_label_1
_geom_bond_atom_site_label_2
_geom_bond_distance
_geom_bond_site_symmetry_2
_ccdc_geom_bond_type
V1     Ti14    10.0   .     S
V1     V11    10.0   .     S
V1     Er8    10.0   1_655     S
V1     V9    10.0   1_655     S
V2     Ti14    10.0   .     S
V2     V7    10.0   .     S
V2     V6    10.0   1_655     S
V2     Er8    10.0   1_665     S
V3     Ti13    10.0   .     S
V3     V11    10.0   .     S
V3     Er12    10.0   .     S
V3     V9    10.0   .     S
Ti4     V11    10.0   .     S
Ti4     V7    10.0   1_545     S
Ti4     Er8    10.0   1_655     S
V5     Ti13    10.0   1_565     S
V5     V6    10.0   .     S
V5     Er12    10.0   .     S
V5     V7    10.0   .     S
V6     Ti10    10.0   .     S
V6     V2    10.0   1_455     S
V6     Er8    10.0   1_565     S
V7     Ti4    10.0   1_565     S
V7     Er12    10.0   .     S
Er8     V2    10.0   1_445     S
Er8     V6    10.0   1_545     S
Er8     V1    10.0   1_455     S
Er8     V9    10.0   .     S
Er8     Ti13    10.0   .     S
Er8     Ti4    10.0   1_455     S
V9     V1    10.0   1_455     S
V9     Ti10    10.0   .     S
Ti10     Er12    10.0   .     S
V11     Er12    10.0   .     S
Er12     Ti14    10.0   .     S
Ti13     V5    10.0   1_545     S
