data_sdv
_audit_creation_date              2020-02-16
_audit_creation_method            'Pymatgen'
_symmetry_space_group_name_H-M    'P1'
_symmetry_Int_Tables_number       1
loop_
_symmetry_equiv_pos_as_xyz
  x,y,z
_cell_length_a                    20.0
_cell_length_b                    19.9999
_cell_length_c                    34.6411
_cell_angle_alpha                 90.0
_cell_angle_beta                 90.0
_cell_angle_gamma                 90.0
loop_
_atom_site_label
_atom_site_type_symbol
_atom_site_fract_x
_atom_site_fract_y
_atom_site_fract_z
Er1     Er     0.0   0.0   0.7499
Ti2     Ti     0.0   0.5   0.7501
V3     V     0.0   0.7497   0.5
V4     V     0.0   0.2503   0.5
V5     V     0.0   0.2497   0.0
Ti6     Ti     0.0   0.0   0.2501
Er7     Er     0.0   0.5   0.2499
V8     V     0.0   0.7503   0.0
loop_
_geom_bond_atom_site_label_1
_geom_bond_atom_site_label_2
_geom_bond_distance
_geom_bond_site_symmetry_2
_ccdc_geom_bond_type
Er1     Ti2    10.0   1_545     S
Er1     Ti2    10.0   .     S
Er1     V4    10.0   .     S
Er1     V3    10.0   1_545     S
Ti2     Er1    10.0   1_565     S
Ti2     V3    10.0   .     S
Ti2     V4    10.0   .     S
Ti2     V5    10.0   1_556     S
Ti2     V8    10.0   1_556     S
V3     Er1    10.0   1_565     S
V3     Ti6    10.0   1_565     S
V4     Ti6    10.0   .     S
V5     Ti2    10.0   1_554     S
V5     Ti6    10.0   .     S
V5     Er7    10.0   .     S
Ti6     Er7    10.0   1_545     S
Ti6     Er7    10.0   .     S
Ti6     V8    10.0   1_545     S
Ti6     V3    10.0   1_545     S
Er7     Ti6    10.0   1_565     S
Er7     V8    10.0   .     S
V8     Ti6    10.0   1_565     S
V8     Ti2    10.0   1_554     S
