data_sdw
_audit_creation_date              2020-02-16
_audit_creation_method            'Pymatgen'
_symmetry_space_group_name_H-M    'P1'
_symmetry_Int_Tables_number       1
loop_
_symmetry_equiv_pos_as_xyz
  x,y,z
_cell_length_a                    17.3206
_cell_length_b                    20.0
_cell_length_c                    26.4345
_cell_angle_alpha                 90.0
_cell_angle_beta                 108.9637
_cell_angle_gamma                 90.0
loop_
_atom_site_label
_atom_site_type_symbol
_atom_site_fract_x
_atom_site_fract_y
_atom_site_fract_z
Er1     Er     0.5992   0.0   0.2
Er2     Er     0.4008   0.0   0.8
Ti3     Ti     0.0   0.0   0.0
V4     V     0.2004   0.0   0.4
V5     V     0.7996   0.0   0.6
loop_
_geom_bond_atom_site_label_1
_geom_bond_atom_site_label_2
_geom_bond_distance
_geom_bond_site_symmetry_2
_ccdc_geom_bond_type
Er1     V5    10.0   .     S
Er1     Ti3    10.0   .     S
Er1     Er2    10.0   1_554     S
Er1     Ti3    10.0   1_655     S
Er2     V4    10.0   .     S
Er2     Ti3    10.0   1_656     S
Er2     Er1    10.0   1_556     S
Er2     Ti3    10.0   1_556     S
Ti3     V4    10.0   .     S
Ti3     Er2    10.0   1_454     S
Ti3     V5    10.0   1_454     S
Ti3     Er2    10.0   1_554     S
Ti3     Er1    10.0   1_455     S
V4     V5    10.0   .     S
V5     Ti3    10.0   1_656     S
