data_sdx
_audit_creation_date              2020-02-16
_audit_creation_method            'Pymatgen'
_symmetry_space_group_name_H-M    'P1'
_symmetry_Int_Tables_number       1
loop_
_symmetry_equiv_pos_as_xyz
  x,y,z
_cell_length_a                    29.8289
_cell_length_b                    29.8289
_cell_length_c                    20.0
_cell_angle_alpha                 90.0
_cell_angle_beta                 90.0
_cell_angle_gamma                 90.0
loop_
_atom_site_label
_atom_site_type_symbol
_atom_site_fract_x
_atom_site_fract_y
_atom_site_fract_z
Er1     Er     0.5   0.5   0.0
V2     V     0.309   0.309   0.0
V3     V     0.691   0.309   0.0
V4     V     0.691   0.691   0.0
V5     V     0.309   0.691   0.0
Ti6     Ti     0.0   0.2871   0.0
Ti7     Ti     0.7129   0.0   0.0
Ti8     Ti     0.0   0.7129   0.0
Ti9     Ti     0.2871   0.0   0.0
loop_
_geom_bond_atom_site_label_1
_geom_bond_atom_site_label_2
_geom_bond_distance
_geom_bond_site_symmetry_2
_ccdc_geom_bond_type
Er1     V2    8.057   .     S
Er1     V3    8.057   .     S
Er1     V5    8.057   .     S
Er1     V4    8.057   .     S
V2     Ti6    9.24   .     S
V2     Ti9    9.24   .     S
V3     Ti7    9.24   .     S
V3     Ti6    9.24   1_655     S
V4     Ti8    9.24   1_655     S
V4     Ti7    9.24   1_565     S
V5     Ti9    9.24   1_565     S
V5     Ti8    9.24   .     S
Ti6     V3    9.24   1_455     S
Ti6     Ti7    12.113   1_455     S
Ti6     Ti9    12.113   .     S
Ti6     Ti8    12.699   .     S
Ti7     V4    9.24   1_545     S
Ti7     Ti6    12.113   1_655     S
Ti7     Ti8    12.113   1_645     S
Ti7     Ti9    12.699   .     S
Ti8     V4    9.24   1_455     S
Ti8     Ti7    12.113   1_465     S
Ti8     Ti9    12.113   1_565     S
Ti9     V5    9.24   1_545     S
Ti9     Ti8    12.113   1_545     S
