data_stz
_audit_creation_date              2020-02-16
_audit_creation_method            'Pymatgen'
_symmetry_space_group_name_H-M    'P1'
_symmetry_Int_Tables_number       1
loop_
_symmetry_equiv_pos_as_xyz
  x,y,z
_cell_length_a                    52.7792
_cell_length_b                    52.7792
_cell_length_c                    20.0
_cell_angle_alpha                 90.0
_cell_angle_beta                 90.0
_cell_angle_gamma                 90.0
loop_
_atom_site_label
_atom_site_type_symbol
_atom_site_fract_x
_atom_site_fract_y
_atom_site_fract_z
Er1     Er     0.817   0.183   0.0
Ce2     Ce     0.366   0.134   0.0
Er3     Er     0.183   0.183   0.0
Ce4     Ce     0.134   0.634   0.0
Er5     Er     0.183   0.817   0.0
V6     V     0.866   0.0   0.0
Ti7     Ti     0.683   0.049   0.0
V8     V     0.5   0.366   0.0
Ti9     Ti     0.549   0.183   0.0
V10     V     0.0   0.866   0.0
Ti11     Ti     0.951   0.683   0.0
V12     V     0.634   0.5   0.0
Ti13     Ti     0.817   0.549   0.0
Ce14     Ce     0.866   0.366   0.0
Er15     Er     0.683   0.317   0.0
Er16     Er     0.317   0.683   0.0
V17     V     0.134   0.0   0.0
Ti18     Ti     0.317   0.951   0.0
V19     V     0.5   0.634   0.0
Ti20     Ti     0.451   0.817   0.0
Er21     Er     0.817   0.817   0.0
Ce22     Ce     0.634   0.866   0.0
Er23     Er     0.683   0.683   0.0
Er24     Er     0.317   0.317   0.0
V25     V     0.366   0.5   0.0
Ti26     Ti     0.183   0.451   0.0
V27     V     0.0   0.134   0.0
Ti28     Ti     0.049   0.317   0.0
loop_
_geom_bond_atom_site_label_1
_geom_bond_atom_site_label_2
_geom_bond_distance
_geom_bond_site_symmetry_2
_ccdc_geom_bond_type
Er1     V27    10.0   1_655     S
Er1     V6    10.0   .     S
Er1     Ti7    10.0   .     S
Er1     Ce14    10.0   .     S
Er1     Er15    10.0   .     S
Ce2     Er3    10.0   .     S
Ce2     Er24    10.0   .     S
Ce2     Ti9    10.0   .     S
Ce2     Ti18    10.0   1_545     S
Er3     Er24    10.0   .     S
Er3     V17    10.0   .     S
Er3     V27    10.0   .     S
Er3     Ti28    10.0   .     S
Ce4     Er5    10.0   .     S
Ce4     Er16    10.0   .     S
Ce4     Ti11    10.0   1_455     S
Ce4     Ti26    10.0   .     S
Er5     Er16    10.0   .     S
Er5     V10    10.0   .     S
Er5     V17    10.0   1_565     S
Er5     Ti18    10.0   .     S
V6     V27    10.0   1_655     S
V6     Ti7    10.0   .     S
V6     Er21    10.0   1_545     S
V6     V10    10.0   1_645     S
Ti7     Ti9    10.0   .     S
Ti7     Ce22    10.0   1_545     S
V8     Er15    10.0   .     S
V8     Ti9    10.0   .     S
V8     V12    10.0   .     S
V8     Er24    10.0   .     S
V8     V25    10.0   .     S
Ti9     Er15    10.0   .     S
V10     V17    10.0   1_565     S
V10     Er21    10.0   1_455     S
V10     Ti11    10.0   1_455     S
V10     V6    10.0   1_465     S
Ti11     V10    10.0   1_655     S
Ti11     Er21    10.0   .     S
Ti11     Ti13    10.0   .     S
Ti11     Ce4    10.0   1_655     S
V12     Er23    10.0   .     S
V12     Ti13    10.0   .     S
V12     Er15    10.0   .     S
V12     V19    10.0   .     S
Ti13     Er23    10.0   .     S
Ti13     Ce14    10.0   .     S
Ce14     Er15    10.0   .     S
Ce14     Ti28    10.0   1_655     S
Er16     V25    10.0   .     S
Er16     V19    10.0   .     S
Er16     Ti20    10.0   .     S
V17     V27    10.0   .     S
V17     V10    10.0   1_545     S
V17     Er5    10.0   1_545     S
V17     Ti18    10.0   1_545     S
Ti18     V17    10.0   1_565     S
Ti18     Ti20    10.0   .     S
Ti18     Ce2    10.0   1_565     S
V19     V25    10.0   .     S
V19     Ti20    10.0   .     S
V19     Er23    10.0   .     S
Ti20     Ce22    10.0   .     S
Er21     V10    10.0   1_655     S
Er21     V6    10.0   1_565     S
Er21     Ce22    10.0   .     S
Er21     Er23    10.0   .     S
Ce22     Er23    10.0   .     S
Ce22     Ti7    10.0   1_565     S
Er24     V25    10.0   .     S
Er24     Ti26    10.0   .     S
V25     Ti26    10.0   .     S
Ti26     Ti28    10.0   .     S
V27     V6    10.0   1_455     S
V27     Er1    10.0   1_455     S
V27     Ti28    10.0   .     S
Ti28     Ce14    10.0   1_455     S
