data_tdt
_audit_creation_date              2020-02-16
_audit_creation_method            'Pymatgen'
_symmetry_space_group_name_H-M    'P1'
_symmetry_Int_Tables_number       1
loop_
_symmetry_equiv_pos_as_xyz
  x,y,z
_cell_length_a                    34.619
_cell_length_b                    30.0252
_cell_length_c                    20.0
_cell_angle_alpha                 90.0
_cell_angle_beta                 90.0
_cell_angle_gamma                 90.0
loop_
_atom_site_label
_atom_site_type_symbol
_atom_site_fract_x
_atom_site_fract_y
_atom_site_fract_z
V1     V     0.8751   0.75   0.0
Er2     Er     0.6251   0.9168   0.0
Ti3     Ti     0.6249   0.5837   0.0
V4     V     0.3751   0.75   0.0
Er5     Er     0.1251   0.5832   0.0
Ti6     Ti     0.1249   0.9163   0.0
V7     V     0.1249   0.25   0.0
Er8     Er     0.3749   0.0832   0.0
Ti9     Ti     0.3751   0.4163   0.0
V10     V     0.6249   0.25   0.0
Er11     Er     0.8749   0.4168   0.0
Ti12     Ti     0.8751   0.0837   0.0
loop_
_geom_bond_atom_site_label_1
_geom_bond_atom_site_label_2
_geom_bond_distance
_geom_bond_site_symmetry_2
_ccdc_geom_bond_type
V1     Er2    9.999   .     S
V1     Ti3    9.999   .     S
V1     Er5    9.999   1_655     S
Er2     V4    9.999   .     S
Er2     Ti3    10.001   .     S
Er2     Er8    10.001   1_565     S
Er2     Ti12    10.001   1_565     S
Ti3     Ti9    10.001   .     S
Ti3     Er11    10.001   .     S
V4     Er5    9.999   .     S
V4     Ti6    9.999   .     S
Er5     V1    9.999   1_455     S
Er5     Ti6    10.001   .     S
Er5     Er11    10.001   1_455     S
Er5     Ti9    10.001   .     S
Ti6     Ti12    10.001   1_465     S
Ti6     Er8    10.001   1_565     S
V7     Er8    9.999   .     S
V7     Ti9    9.999   .     S
V7     Er11    9.999   1_455     S
Er8     V10    9.999   .     S
Er8     Ti9    10.001   .     S
Er8     Er2    10.001   1_545     S
Er8     Ti6    10.001   1_545     S
V10     Er11    9.999   .     S
V10     Ti12    9.999   .     S
Er11     V7    9.999   1_655     S
Er11     Ti12    10.001   .     S
Er11     Er5    10.001   1_655     S
Ti12     Ti6    10.001   1_645     S
Ti12     Er2    10.001   1_545     S
