data_tdv
_audit_creation_date              2020-02-16
_audit_creation_method            'Pymatgen'
_symmetry_space_group_name_H-M    'P1'
_symmetry_Int_Tables_number       1
loop_
_symmetry_equiv_pos_as_xyz
  x,y,z
_cell_length_a                    20.0
_cell_length_b                    17.3041
_cell_length_c                    30.0332
_cell_angle_alpha                 90.0
_cell_angle_beta                 90.0
_cell_angle_gamma                 90.0
loop_
_atom_site_label
_atom_site_type_symbol
_atom_site_fract_x
_atom_site_fract_y
_atom_site_fract_z
V1     V     0.0   0.2504   0.0
Ti2     Ti     0.0   0.7506   0.1671
Er3     Er     0.0   0.2496   0.333
Er4     Er     0.0   0.7504   0.833
Ti5     Ti     0.0   0.2494   0.6671
V6     V     0.0   0.7496   0.5
loop_
_geom_bond_atom_site_label_1
_geom_bond_atom_site_label_2
_geom_bond_distance
_geom_bond_site_symmetry_2
_ccdc_geom_bond_type
V1     Ti2    9.999   1_545     S
V1     Er3    10.001   .     S
V1     Er4    10.001   1_544     S
V1     Ti5    9.999   1_554     S
V1     Er4    10.001   1_554     S
Ti2     V1    9.999   1_565     S
Ti2     V6    9.999   .     S
Ti2     Er3    9.999   .     S
Er3     V6    10.001   1_545     S
Er3     V6    10.001   .     S
Er4     V1    10.001   1_566     S
Er4     Ti5    9.999   .     S
Er4     V1    10.001   1_556     S
Er4     V6    10.001   .     S
Ti5     V1    9.999   1_556     S
Ti5     V6    9.999   1_545     S
V6     Er3    10.001   1_565     S
V6     Ti5    9.999   1_565     S
