data_tdw
_audit_creation_date              2020-02-16
_audit_creation_method            'Pymatgen'
_symmetry_space_group_name_H-M    'P1'
_symmetry_Int_Tables_number       1
loop_
_symmetry_equiv_pos_as_xyz
  x,y,z
_cell_length_a                    17.4573
_cell_length_b                    20.0
_cell_length_c                    29.7643
_cell_angle_alpha                 90.0
_cell_angle_beta                 90.5415
_cell_angle_gamma                 90.0
loop_
_atom_site_label
_atom_site_type_symbol
_atom_site_fract_x
_atom_site_fract_y
_atom_site_fract_z
Er1     Er     0.7487   0.0   0.418
Er2     Er     0.2513   0.0   0.582
V3     V     0.254   0.0   0.2459
V4     V     0.746   0.0   0.7541
Ti5     Ti     0.7513   0.0   0.082
Ti6     Ti     0.2487   0.0   0.918
loop_
_geom_bond_atom_site_label_1
_geom_bond_atom_site_label_2
_geom_bond_distance
_geom_bond_site_symmetry_2
_ccdc_geom_bond_type
Er1     Ti5    10.0   .     S
Er1     V3    9.999   .     S
Er1     Er2    10.001   1_655     S
Er1     Er2    10.001   .     S
Er2     Ti6    10.0   .     S
Er2     V4    9.999   .     S
Er2     Er1    10.001   1_455     S
V3     Ti5    9.999   1_455     S
V3     Ti5    9.999   .     S
V4     Ti6    9.999   1_655     S
V4     Ti6    9.999   .     S
Ti5     V3    9.999   1_655     S
Ti5     Ti6    10.001   1_654     S
Ti5     Ti6    10.001   1_554     S
Ti6     Ti5    10.001   1_456     S
Ti6     V4    9.999   1_455     S
Ti6     Ti5    10.001   1_556     S
