data_tdy
_audit_creation_date              2020-02-16
_audit_creation_method            'Pymatgen'
_symmetry_space_group_name_H-M    'P1'
_symmetry_Int_Tables_number       1
loop_
_symmetry_equiv_pos_as_xyz
  x,y,z
_cell_length_a                    17.297
_cell_length_b                    20.0
_cell_length_c                    17.3242
_cell_angle_alpha                 90.0
_cell_angle_beta                 119.8688
_cell_angle_gamma                 90.0
loop_
_atom_site_label
_atom_site_type_symbol
_atom_site_fract_x
_atom_site_fract_y
_atom_site_fract_z
V1     V     0.6666   0.0   0.3313
Er2     Er     0.0   0.0   0.0
Ti3     Ti     0.3332   0.0   0.6657
loop_
_geom_bond_atom_site_label_1
_geom_bond_atom_site_label_2
_geom_bond_distance
_geom_bond_site_symmetry_2
_ccdc_geom_bond_type
V1     Ti3    9.999   1_655     S
V1     Ti3    9.999   1_554     S
V1     Er2    9.999   .     S
Er2     Ti3    10.001   .     S
Er2     Ti3    10.001   1_454     S
Er2     Ti3    10.001   1_554     S
Ti3     V1    9.999   1_455     S
Ti3     V1    9.999   1_556     S
Ti3     Er2    10.001   1_656     S
Ti3     Er2    10.001   1_556     S
