data_tfr
_audit_creation_date              2020-02-16
_audit_creation_method            'Pymatgen'
_symmetry_space_group_name_H-M    'P1'
_symmetry_Int_Tables_number       1
loop_
_symmetry_equiv_pos_as_xyz
  x,y,z
_cell_length_a                    114.6869
_cell_length_b                    114.6869
_cell_length_c                    20.0
_cell_angle_alpha                 90.0
_cell_angle_beta                 90.0
_cell_angle_gamma                 120.0
loop_
_atom_site_label
_atom_site_type_symbol
_atom_site_fract_x
_atom_site_fract_y
_atom_site_fract_z
Ti1     Ti     0.9496   0.6443   0.0
S2     S     0.9497   0.5573   0.0
Ti3     Ti     0.0504   0.6947   0.0
S4     S     0.0503   0.6076   0.0
Ce5     Ce     0.1404   0.6138   0.0
Ce6     Ce     0.8596   0.4734   0.0
Ti7     Ti     0.3557   0.0504   0.0
S8     S     0.4427   0.0503   0.0
Ti9     Ti     0.3053   0.9496   0.0
S10     S     0.3924   0.9497   0.0
Ce11     Ce     0.3862   0.8596   0.0
Ce12     Ce     0.5266   0.1404   0.0
V13     V     0.2357   0.8516   0.0
Er14     Er     0.2859   0.8013   0.0
V15     V     0.1484   0.7643   0.0
Er16     Er     0.1987   0.7141   0.0
V17     V     0.2357   0.384   0.0
Er18     Er     0.2859   0.4846   0.0
V19     V     0.1484   0.384   0.0
Er20     Er     0.1987   0.4846   0.0
V21     V     0.384   0.2357   0.0
Er22     Er     0.4846   0.2859   0.0
V23     V     0.384   0.1484   0.0
Er24     Er     0.4846   0.1987   0.0
Ti25     Ti     0.3053   0.3557   0.0
S26     S     0.3924   0.4427   0.0
Ti27     Ti     0.3557   0.3053   0.0
S28     S     0.4427   0.3924   0.0
Ce29     Ce     0.5266   0.3862   0.0
Ce30     Ce     0.3862   0.5266   0.0
Ti31     Ti     0.9496   0.3053   0.0
S32     S     0.9497   0.3924   0.0
Ti33     Ti     0.0504   0.3557   0.0
S34     S     0.0503   0.4427   0.0
Ce35     Ce     0.1404   0.5266   0.0
Ce36     Ce     0.8596   0.3862   0.0
Ti37     Ti     0.6947   0.0504   0.0
S38     S     0.6076   0.0503   0.0
Ti39     Ti     0.6443   0.9496   0.0
S40     S     0.5573   0.9497   0.0
Ce41     Ce     0.6138   0.1404   0.0
Ce42     Ce     0.4734   0.8596   0.0
V43     V     0.7643   0.1484   0.0
Er44     Er     0.7141   0.1987   0.0
V45     V     0.8516   0.2357   0.0
Er46     Er     0.8013   0.2859   0.0
V47     V     0.616   0.7643   0.0
Er48     Er     0.5154   0.7141   0.0
V49     V     0.616   0.8516   0.0
Er50     Er     0.5154   0.8013   0.0
V51     V     0.7643   0.616   0.0
Er52     Er     0.7141   0.5154   0.0
V53     V     0.8516   0.616   0.0
Er54     Er     0.8013   0.5154   0.0
Ti55     Ti     0.6947   0.6443   0.0
S56     S     0.6076   0.5573   0.0
Ti57     Ti     0.6443   0.6947   0.0
S58     S     0.5573   0.6076   0.0
Ce59     Ce     0.4734   0.6138   0.0
Ce60     Ce     0.6138   0.4734   0.0
loop_
_geom_bond_atom_site_label_1
_geom_bond_atom_site_label_2
_geom_bond_distance
_geom_bond_site_symmetry_2
_ccdc_geom_bond_type
Ti1     Ti3    10.012   1_655     S
Ti1     V53    10.013   .     S
Ti1     S2    9.988   .     S
S2     S4    9.994   1_655     S
S2     Ce6    9.995   .     S
Ti3     Ti1    10.012   1_455     S
Ti3     V15    10.013   .     S
Ti3     S4    9.988   .     S
S4     S2    9.994   1_455     S
S4     Ce5    9.995   .     S
Ce5     Er16    10.002   .     S
Ce5     Ce35    10.008   .     S
Ce6     Er54    10.002   .     S
Ce6     Ce36    10.008   .     S
Ti7     Ti9    10.012   1_545     S
Ti7     V23    10.013   .     S
Ti7     S8    9.988   .     S
S8     S10    9.994   1_545     S
S8     Ce12    9.995   .     S
Ti9     Ti7    10.012   1_565     S
Ti9     V13    10.013   .     S
Ti9     S10    9.988   .     S
S10     S8    9.994   1_565     S
S10     Ce11    9.995   .     S
Ce11     Er14    10.002   .     S
Ce11     Ce42    10.008   .     S
Ce12     Er24    10.002   .     S
Ce12     Ce41    10.008   .     S
V13     V15    10.013   .     S
V13     Er14    9.989   .     S
Er14     Er16    10.001   .     S
V15     Er16    9.989   .     S
V17     V19    10.013   .     S
V17     Ti25    10.013   .     S
V17     Er18    9.989   .     S
Er18     Er20    10.001   .     S
Er18     Ce30    10.002   .     S
V19     Ti33    10.013   .     S
V19     Er20    9.989   .     S
Er20     Ce35    10.002   .     S
V21     V23    10.013   .     S
V21     Ti27    10.013   .     S
V21     Er22    9.989   .     S
Er22     Er24    10.001   .     S
Er22     Ce29    10.002   .     S
V23     Er24    9.989   .     S
Ti25     Ti27    10.012   .     S
Ti25     S26    9.988   .     S
S26     S28    9.994   .     S
S26     Ce30    9.995   .     S
Ti27     S28    9.988   .     S
S28     Ce29    9.995   .     S
Ce29     Ce60    10.008   .     S
Ce30     Ce59    10.008   .     S
Ti31     Ti33    10.012   1_655     S
Ti31     V45    10.013   .     S
Ti31     S32    9.988   .     S
S32     S34    9.994   1_655     S
S32     Ce36    9.995   .     S
Ti33     Ti31    10.012   1_455     S
Ti33     S34    9.988   .     S
S34     S32    9.994   1_455     S
S34     Ce35    9.995   .     S
Ce36     Er46    10.002   .     S
Ti37     Ti39    10.012   1_545     S
Ti37     V43    10.013   .     S
Ti37     S38    9.988   .     S
S38     S40    9.994   1_545     S
S38     Ce41    9.995   .     S
Ti39     Ti37    10.012   1_565     S
Ti39     V49    10.013   .     S
Ti39     S40    9.988   .     S
S40     S38    9.994   1_565     S
S40     Ce42    9.995   .     S
Ce41     Er44    10.002   .     S
Ce42     Er50    10.002   .     S
V43     V45    10.013   .     S
V43     Er44    9.989   .     S
Er44     Er46    10.001   .     S
V45     Er46    9.989   .     S
V47     V49    10.013   .     S
V47     Ti57    10.013   .     S
V47     Er48    9.989   .     S
Er48     Er50    10.001   .     S
Er48     Ce59    10.002   .     S
V49     Er50    9.989   .     S
V51     V53    10.013   .     S
V51     Ti55    10.013   .     S
V51     Er52    9.989   .     S
Er52     Er54    10.001   .     S
Er52     Ce60    10.002   .     S
V53     Er54    9.989   .     S
Ti55     Ti57    10.012   .     S
Ti55     S56    9.988   .     S
S56     S58    9.994   .     S
S56     Ce60    9.995   .     S
Ti57     S58    9.988   .     S
S58     Ce59    9.995   .     S
