data_ttsa
_audit_creation_date              2020-02-16
_audit_creation_method            'Pymatgen'
_symmetry_space_group_name_H-M    'P1'
_symmetry_Int_Tables_number       1
loop_
_symmetry_equiv_pos_as_xyz
  x,y,z
_cell_length_a                    51.81
_cell_length_b                    51.81
_cell_length_c                    20.0
_cell_angle_alpha                 90.0
_cell_angle_beta                 90.0
_cell_angle_gamma                 90.0
loop_
_atom_site_label
_atom_site_type_symbol
_atom_site_fract_x
_atom_site_fract_y
_atom_site_fract_z
V1     V     0.4772   0.2558   0.0
V2     V     0.2442   0.0228   0.0
V3     V     0.5228   0.7442   0.0
Er4     Er     0.3352   0.6988   0.0
Er5     Er     0.1988   0.8352   0.0
Er6     Er     0.8012   0.1648   0.0
Er7     Er     0.6648   0.3012   0.0
V8     V     0.7558   0.9772   0.0
Ti9     Ti     0.4318   0.0682   0.0
Ti10     Ti     0.5682   0.9318   0.0
V11     V     0.9772   0.2442   0.0
V12     V     0.2558   0.5228   0.0
Er13     Er     0.1648   0.1988   0.0
Er14     Er     0.3012   0.3352   0.0
Er15     Er     0.6988   0.6648   0.0
Er16     Er     0.8352   0.8012   0.0
V17     V     0.7442   0.4772   0.0
V18     V     0.0228   0.7558   0.0
Ti19     Ti     0.9318   0.4318   0.0
Ti20     Ti     0.0682   0.5682   0.0
loop_
_geom_bond_atom_site_label_1
_geom_bond_atom_site_label_2
_geom_bond_distance
_geom_bond_site_symmetry_2
_ccdc_geom_bond_type
V1     Ti9    10.0   .     S
V1     Er14    10.0   .     S
V1     Er7    10.0   .     S
V2     Ti9    10.0   .     S
V2     Er13    10.0   .     S
V2     Er5    10.0   1_545     S
V3     Ti10    10.0   .     S
V3     Er15    10.0   .     S
V3     Er4    10.0   .     S
Er4     Er5    10.0   .     S
Er4     V12    10.0   .     S
Er5     V2    10.0   1_565     S
Er5     V18    10.0   .     S
Er6     V8    10.0   1_545     S
Er6     Er7    10.0   .     S
Er6     V11    10.0   .     S
Er7     V17    10.0   .     S
V8     Er6    10.0   1_565     S
V8     Ti10    10.0   .     S
V8     Er16    10.0   .     S
Ti9     Ti10    10.0   1_545     S
Ti10     Ti9    10.0   1_565     S
V11     Ti19    10.0   .     S
V11     Er13    10.0   1_655     S
V12     Ti20    10.0   .     S
V12     Er14    10.0   .     S
Er13     V11    10.0   1_455     S
Er13     Er14    10.0   .     S
Er15     V17    10.0   .     S
Er15     Er16    10.0   .     S
Er16     V18    10.0   1_655     S
V17     Ti19    10.0   .     S
V18     Er16    10.0   1_455     S
V18     Ti20    10.0   .     S
Ti19     Ti20    10.0   1_655     S
Ti20     Ti19    10.0   1_455     S
