data_usm
_audit_creation_date              2020-02-16
_audit_creation_method            'Pymatgen'
_symmetry_space_group_name_H-M    'P1'
_symmetry_Int_Tables_number       1
loop_
_symmetry_equiv_pos_as_xyz
  x,y,z
_cell_length_a                    33.4607
_cell_length_b                    33.4607
_cell_length_c                    20.0
_cell_angle_alpha                 90.0
_cell_angle_beta                 90.0
_cell_angle_gamma                 90.0
loop_
_atom_site_label
_atom_site_type_symbol
_atom_site_fract_x
_atom_site_fract_y
_atom_site_fract_z
Er1     Er     0.8943   0.3943   0.0
Er2     Er     0.1057   0.6057   0.0
Er3     Er     0.6057   0.8943   0.0
Er4     Er     0.3943   0.1057   0.0
V5     V     0.317   0.3943   0.0
V6     V     0.3943   0.683   0.0
V7     V     0.6057   0.317   0.0
V8     V     0.683   0.6057   0.0
V9     V     0.817   0.1057   0.0
V10     V     0.1057   0.183   0.0
V11     V     0.8943   0.817   0.0
V12     V     0.183   0.8943   0.0
loop_
_geom_bond_atom_site_label_1
_geom_bond_atom_site_label_2
_geom_bond_distance
_geom_bond_site_symmetry_2
_ccdc_geom_bond_type
Er1     Er2    10.0   1_655     S
Er1     V8    10.0   .     S
Er1     V9    10.0   .     S
Er1     V7    10.0   .     S
Er1     V10    10.0   1_655     S
Er2     Er1    10.0   1_455     S
Er2     V5    10.0   .     S
Er2     V11    10.0   1_455     S
Er2     V12    10.0   .     S
Er2     V6    10.0   .     S
Er3     Er4    10.0   1_565     S
Er3     V6    10.0   .     S
Er3     V9    10.0   1_565     S
Er3     V11    10.0   .     S
Er3     V8    10.0   .     S
Er4     Er3    10.0   1_545     S
Er4     V7    10.0   .     S
Er4     V12    10.0   1_545     S
Er4     V10    10.0   .     S
Er4     V5    10.0   .     S
V5     V7    10.0   .     S
V5     V6    10.0   .     S
V5     V10    10.0   .     S
V6     V8    10.0   .     S
V6     V12    10.0   .     S
V7     V8    10.0   .     S
V7     V9    10.0   .     S
V8     V11    10.0   .     S
V9     V10    10.0   1_655     S
V9     V11    10.0   1_545     S
V9     Er3    10.0   1_545     S
V10     V9    10.0   1_455     S
V10     Er1    10.0   1_455     S
V10     V12    10.0   1_545     S
V11     V9    10.0   1_565     S
V11     Er2    10.0   1_655     S
V11     V12    10.0   1_655     S
V12     Er4    10.0   1_565     S
V12     V10    10.0   1_565     S
V12     V11    10.0   1_455     S
