data_var
_audit_creation_date              2020-02-16
_audit_creation_method            'Pymatgen'
_symmetry_space_group_name_H-M    'P1'
_symmetry_Int_Tables_number       1
loop_
_symmetry_equiv_pos_as_xyz
  x,y,z
_cell_length_a                    65.5089
_cell_length_b                    45.0712
_cell_length_c                    20.0
_cell_angle_alpha                 90.0
_cell_angle_beta                 90.0
_cell_angle_gamma                 90.0
loop_
_atom_site_label
_atom_site_type_symbol
_atom_site_fract_x
_atom_site_fract_y
_atom_site_fract_z
Ti1     Ti     0.2259   0.8891   0.0
Ti2     Ti     0.2259   0.1109   0.0
Er3     Er     0.0   0.6109   0.0
V4     V     0.137   0.7087   0.0
V5     V     0.863   0.7087   0.0
Er6     Er     0.0   0.3891   0.0
V7     V     0.137   0.2913   0.0
V8     V     0.863   0.2913   0.0
Ti9     Ti     0.7741   0.8891   0.0
Ti10     Ti     0.7741   0.1109   0.0
Ti11     Ti     0.2741   0.6109   0.0
Ti12     Ti     0.2741   0.3891   0.0
V13     V     0.363   0.7913   0.0
Er14     Er     0.5   0.8891   0.0
V15     V     0.637   0.7913   0.0
V16     V     0.363   0.2087   0.0
Er17     Er     0.5   0.1109   0.0
V18     V     0.637   0.2087   0.0
Ti19     Ti     0.7259   0.6109   0.0
Ti20     Ti     0.7259   0.3891   0.0
loop_
_geom_bond_atom_site_label_1
_geom_bond_atom_site_label_2
_geom_bond_distance
_geom_bond_site_symmetry_2
_ccdc_geom_bond_type
Ti1     V13    10.0   .     S
Ti1     V4    10.0   .     S
Ti1     Ti2    10.0   1_565     S
Ti2     V16    10.0   .     S
Ti2     V7    10.0   .     S
Ti2     Ti1    10.0   1_545     S
Er3     V5    10.0   1_455     S
Er3     V4    10.0   .     S
Er3     Er6    10.0   .     S
V4     Ti11    10.0   .     S
V5     Er3    10.0   1_655     S
V5     Ti9    10.0   .     S
V5     Ti19    10.0   .     S
Er6     V8    10.0   1_455     S
Er6     V7    10.0   .     S
V7     Ti12    10.0   .     S
V8     Er6    10.0   1_655     S
V8     Ti10    10.0   .     S
V8     Ti20    10.0   .     S
Ti9     V15    10.0   .     S
Ti9     Ti10    10.0   1_565     S
Ti10     V18    10.0   .     S
Ti10     Ti9    10.0   1_545     S
Ti11     V13    10.0   .     S
Ti11     Ti12    10.0   .     S
Ti12     V16    10.0   .     S
V13     Er14    10.0   .     S
Er14     V15    10.0   .     S
Er14     Er17    10.0   1_565     S
V15     Ti19    10.0   .     S
V16     Er17    10.0   .     S
Er17     V18    10.0   .     S
Er17     Er14    10.0   1_545     S
V18     Ti20    10.0   .     S
Ti19     Ti20    10.0   .     S
